  112
CERIA BULK                              
 O  -1.968265307402E+00  1.133453913943E+00  4.089668261305E+00
 O  -3.722560970187E+00  4.377399669896E+00  4.116314465709E+00
 O   1.183617084810E-01 -2.177268577908E+00  4.082069009727E+00
 O   1.890186245923E+00  1.009688604058E+00  4.016423849499E+00
 O  -3.870080650900E-02  4.370617016918E+00  4.291652515946E+00
 O   3.702421201353E+00 -2.249140016197E+00  4.151681673414E+00
 O  -5.593329916279E+00  1.145100309093E+00  3.935845450205E+00
 O  -7.521909316207E+00  4.367218082528E+00  3.954997740766E+00
 O  -3.705068042983E+00 -2.129310050141E+00  4.066436561493E+00
 CE  1.897332248354E+00 -1.096623509282E+00  3.196757009364E+00
 CE -1.347336993100E-02  2.117832173312E+00  3.288485709377E+00
 CE  3.721973433723E+00 -4.325342383936E+00  3.202340831858E+00
 CE  5.653304389793E+00 -1.079671082656E+00  3.318868101213E+00
 CE  3.761350732030E+00  2.146790535230E+00  3.255406914738E+00
 CE  7.578564847611E+00 -4.328533013652E+00  3.246185456586E+00
 CE -1.888707637848E+00 -1.053700307179E+00  3.260654482252E+00
 CE -3.772164975151E+00  2.188844568963E+00  3.173444742955E+00
 CE  1.128602827500E-02 -4.325263582220E+00  3.274438457116E+00
 O  -4.208208544000E-02  9.958818162000E-03  2.460848724564E+00
 O  -1.821710549508E+00  3.293207305344E+00  2.446320775194E+00
 O   1.888651006734E+00 -3.276744730138E+00  2.395218476356E+00
 O   3.787762326056E+00 -5.590568581200E-02  2.449567023130E+00
 O   1.787054134992E+00  3.269162044994E+00  2.502264529938E+00
 O   5.645532688953E+00 -3.291527803212E+00  2.493529274025E+00
 O  -3.744316372425E+00 -1.009645869500E-02  2.421630752093E+00
 O  -5.613113461134E+00  3.315056021374E+00  2.418300593482E+00
 O  -1.840509383789E+00 -3.210809370613E+00  2.464422761101E+00
 O   1.870790559472E+00 -1.076298732892E+00  8.815053772020E-01
 O  -8.740011089999E-04  2.152721711514E+00  8.828393596220E-01
 O   3.769074721762E+00 -4.338819689902E+00  8.740787075860E-01
 O   5.644734918648E+00 -1.113116813517E+00  8.849546845600E-01
 O   3.735396823676E+00  2.167752630464E+00  9.128916501250E-01
 O   7.541594290591E+00 -4.347700536023E+00  9.099375944030E-01
 O  -1.874139237241E+00 -1.080295562071E+00  8.707900193730E-01
 O  -3.741955740036E+00  2.185310503827E+00  8.785129491590E-01
 O  -3.614813227000E-03 -4.327163058702E+00  8.692907507800E-01
 CE -4.936175636000E-03  6.130889848000E-03  3.055062362800E-02
 CE -1.867556271183E+00  3.261983675472E+00  3.378636834400E-02
 CE  1.878739596280E+00 -3.258908438295E+00  1.955205365700E-02
 CE  3.765766082604E+00 -8.428803631000E-03  4.397354564100E-02
 CE  1.870789863311E+00  3.251684033012E+00  5.778020732100E-02
 CE  5.647270057909E+00 -3.257474803954E+00  5.305376487800E-02
 CE -3.755721702947E+00 -4.322000316000E-03  4.034601590400E-02
 CE -5.643797301352E+00  3.278653590400E+00  4.147161584100E-02
 CE -1.865021340254E+00 -3.249264608904E+00  4.083169142300E-02
 O  -1.879134284960E+00  1.094022986526E+00 -7.533790013830E-01
 O  -3.759395011691E+00  4.350512144540E+00 -7.466309138580E-01
 O   6.643471586000E-03 -2.165340962256E+00 -7.577573241080E-01
 O   1.885194265540E+00  1.088650570477E+00 -7.470042219790E-01
 O   7.069244958000E-03  4.346777821720E+00 -7.361491662690E-01
 O   3.762118492098E+00 -2.171284454536E+00 -7.468206012740E-01
 O  -5.638836201311E+00  1.099433211255E+00 -7.345520121920E-01
 O  -7.522336325159E+00  4.348311729742E+00 -7.432601119090E-01
 O  -3.750864348958E+00 -2.172080570492E+00 -7.493448410500E-01
 O   0.000000000000E+00  0.000000000000E+00 -2.343480358560E+00
 O  -1.882494538433E+00  3.260395204534E+00 -2.343480358560E+00
 O   1.882494538438E+00 -3.260395204529E+00 -2.343480358560E+00
 O   3.756128685319E+00 -5.070757861000E-03 -2.343480358560E+00
 O   1.873634146881E+00  3.255324446677E+00 -2.343480358560E+00
 O   5.638623223767E+00 -3.265465962390E+00 -2.343480358560E+00
 O  -3.756128685320E+00  5.070757851000E-03 -2.343480358560E+00
 O  -5.638623223767E+00  3.265465962390E+00 -2.343480358560E+00
 O  -1.873634146887E+00 -3.255324446672E+00 -2.343480358560E+00
 CE -1.879541074586E+00  1.088488654129E+00 -3.124640478080E+00
 CE -3.762035613014E+00  4.348883858667E+00 -3.124640478080E+00
 CE  2.953463851000E-03 -2.171906550400E+00 -3.124640478080E+00
 CE  1.876587610735E+00  1.083417896271E+00 -3.124640478080E+00
 CE -5.906927702000E-03  4.343813100807E+00 -3.124640478080E+00
 CE  3.759082149173E+00 -2.176977308260E+00 -3.124640478080E+00
 CE -5.635669759948E+00  1.093559411974E+00 -3.124640478080E+00
 CE -7.518164298341E+00  4.353954616531E+00 -3.124640478080E+00
 CE -3.753175221471E+00 -2.166835792547E+00 -3.124640478080E+00
 O   1.879541074586E+00 -1.088488654129E+00 -3.905800597599E+00
 O  -2.953463851000E-03  2.171906550400E+00 -3.905800597599E+00
 O   3.762035613014E+00 -4.348883858667E+00 -3.905800597599E+00
 O   5.635669759948E+00 -1.093559411974E+00 -3.905800597599E+00
 O   3.753175221475E+00  2.166835792547E+00 -3.905800597599E+00
 O   7.518164298341E+00 -4.353954616531E+00 -3.905800597599E+00
 O  -1.876587610735E+00 -1.083417896271E+00 -3.905800597599E+00
 O  -3.759082149176E+00  2.176977308260E+00 -3.905800597599E+00
 O   5.906927701000E-03 -4.343813100807E+00 -3.905800597599E+00
 O   1.138991368517E+01  4.476282187828E+00  6.904323974511E+00
 H   1.126424733110E+01  4.375282328628E+00  5.298861107864E+00
 H   1.072077570851E+01  5.182958675824E+00  7.058413397166E+00
 O   2.880508812320E-01  1.816245399484E+00  5.952078559052E+00
 H   2.106587587190E-01  2.587253864625E+00  6.557612285133E+00
 H   1.237804380250E+00  1.593224013703E+00  5.849987684126E+00
 H  -2.580595493800E-02 -4.990647933935E+00  6.538364639081E+00
 O  -4.778762973200E-01 -4.205809744905E+00  6.131964597563E+00
 H  -1.878832783310E-01 -3.417697518464E+00  6.620026635653E+00
 H   1.225725621671E+01  4.943625084638E+00  6.899935342794E+00
 O   1.506864471130E+01  2.454475938736E+00  5.834145607352E+00
 H   1.496727921908E+01  3.416290549689E+00  5.672356164900E+00
 H   1.600973202260E+01  2.365031761258E+00  6.101596313570E+00
 H  -3.426876269334E+00 -2.986760614604E+00  5.683592871578E+00
 O  -3.294015614908E+00 -3.929620667397E+00  5.947115157338E+00
 H  -2.327236752892E+00 -4.049393946359E+00  6.110526443714E+00
 O  -3.365157435299E+00  8.715494325940E-01  6.489487688828E+00
 H  -2.722507470717E+00  8.862196989950E-01  5.729809269868E+00
 H  -2.883616843352E+00  4.839980588610E-01  7.239366851366E+00
 O  -5.610299493416E+00 -7.697457474700E-01  5.848701055271E+00
 H  -4.859597536916E+00 -2.246775749070E-01  6.179070438857E+00
 H  -5.824093798305E+00 -1.500810109364E+00  6.462268553649E+00
 O  -4.737475016930E+00  3.318603751045E+00  6.333857361809E+00
 H  -4.207437489356E+00  3.751672720692E+00  5.606190753009E+00
 H  -4.206491789672E+00  2.575658897972E+00  6.693525299620E+00
 O   1.582581918174E+01  8.824971593561E+00  5.957657219056E+00
 H   1.649685558805E+01  8.278174925735E+00  5.456457250627E+00
 O   2.107467023859E+01  6.757874047767E+00  6.664667745699E+00
 H   2.042883391940E+01  7.027984266490E+00  7.336138594834E+00
 H   2.076819162487E+01  7.098189770023E+00  5.767170794006E+00
 H   1.624022198196E+01  9.699089035749E+00  6.112629514850E+00
  112
CERIA BULK                              
 O  -1.968265307402E+00  1.133453913943E+00  4.089668261305E+00
 O  -3.722560970187E+00  4.377399669896E+00  4.116314465709E+00
 O   1.183617084810E-01 -2.177268577908E+00  4.082069009727E+00
 O   1.890186245923E+00  1.009688604058E+00  4.016423849499E+00
 O  -3.870080650930E-02  4.370617016918E+00  4.291652515946E+00
 O   3.702421201353E+00 -2.249140016197E+00  4.151681673414E+00
 O  -5.593329916279E+00  1.145100309093E+00  3.935845450205E+00
 O  -7.521909316207E+00  4.367218082528E+00  3.954997740766E+00
 O  -3.705068042983E+00 -2.129310050141E+00  4.066436561493E+00
 CE  1.897332248354E+00 -1.096623509282E+00  3.196757009364E+00
 CE -1.347336993089E-02  2.117832173312E+00  3.288485709377E+00
 CE  3.721973433723E+00 -4.325342383936E+00  3.202340831858E+00
 CE  5.653304389793E+00 -1.079671082656E+00  3.318868101213E+00
 CE  3.761350732030E+00  2.146790535230E+00  3.255406914738E+00
 CE  7.578564847611E+00 -4.328533013652E+00  3.246185456586E+00
 CE -1.888707637848E+00 -1.053700307179E+00  3.260654482252E+00
 CE -3.772164975151E+00  2.188844568963E+00  3.173444742955E+00
 CE  1.128602827452E-02 -4.325263582220E+00  3.274438457116E+00
 O  -4.208208543955E-02  9.958818162354E-03  2.460848724564E+00
 O  -1.821710549508E+00  3.293207305344E+00  2.446320775194E+00
 O   1.888651006734E+00 -3.276744730138E+00  2.395218476356E+00
 O   3.787762326056E+00 -5.590568581185E-02  2.449567023130E+00
 O   1.787054134992E+00  3.269162044994E+00  2.502264529938E+00
 O   5.645532688953E+00 -3.291527803212E+00  2.493529274025E+00
 O  -3.744316372425E+00 -1.009645869531E-02  2.421630752093E+00
 O  -5.613113461133E+00  3.315056021374E+00  2.418300593482E+00
 O  -1.840509383789E+00 -3.210809370613E+00  2.464422761101E+00
 O   1.870790559472E+00 -1.076298732892E+00  8.815053772016E-01
 O  -8.740011094079E-04  2.152721711514E+00  8.828393596218E-01
 O   3.769074721762E+00 -4.338819689902E+00  8.740787075859E-01
 O   5.644734918649E+00 -1.113116813517E+00  8.849546845602E-01
 O   3.735396823676E+00  2.167752630463E+00  9.128916501246E-01
 O   7.541594290591E+00 -4.347700536023E+00  9.099375944033E-01
 O  -1.874139237241E+00 -1.080295562071E+00  8.707900193734E-01
 O  -3.741955740036E+00  2.185310503827E+00  8.785129491593E-01
 O  -3.614813227420E-03 -4.327163058702E+00  8.692907507804E-01
 CE -4.936175635785E-03  6.130889848311E-03  3.055062362808E-02
 CE -1.867556271183E+00  3.261983675472E+00  3.378636834404E-02
 CE  1.878739596280E+00 -3.258908438295E+00  1.955205365719E-02
 CE  3.765766082604E+00 -8.428803631278E-03  4.397354564134E-02
 CE  1.870789863311E+00  3.251684033012E+00  5.778020732115E-02
 CE  5.647270057909E+00 -3.257474803954E+00  5.305376487754E-02
 CE -3.755721702947E+00 -4.322000316219E-03  4.034601590443E-02
 CE -5.643797301352E+00  3.278653590400E+00  4.147161584129E-02
 CE -1.865021340254E+00 -3.249264608904E+00  4.083169142334E-02
 O  -1.879134284960E+00  1.094022986526E+00 -7.533790013831E-01
 O  -3.759395011691E+00  4.350512144540E+00 -7.466309138580E-01
 O   6.643471585649E-03 -2.165340962256E+00 -7.577573241076E-01
 O   1.885194265540E+00  1.088650570477E+00 -7.470042219791E-01
 O   7.069244957739E-03  4.346777821720E+00 -7.361491662693E-01
 O   3.762118492098E+00 -2.171284454536E+00 -7.468206012737E-01
 O  -5.638836201311E+00  1.099433211255E+00 -7.345520121918E-01
 O  -7.522336325159E+00  4.348311729742E+00 -7.432601119086E-01
 O  -3.750864348958E+00 -2.172080570492E+00 -7.493448410498E-01
 O   0.000000000000E+00  0.000000000000E+00 -2.343480358560E+00
 O  -1.882494538433E+00  3.260395204534E+00 -2.343480358560E+00
 O   1.882494538438E+00 -3.260395204529E+00 -2.343480358560E+00
 O   3.756128685319E+00 -5.070757861460E-03 -2.343480358560E+00
 O   1.873634146881E+00  3.255324446677E+00 -2.343480358560E+00
 O   5.638623223767E+00 -3.265465962390E+00 -2.343480358560E+00
 O  -3.756128685320E+00  5.070757851461E-03 -2.343480358560E+00
 O  -5.638623223767E+00  3.265465962390E+00 -2.343480358560E+00
 O  -1.873634146887E+00 -3.255324446672E+00 -2.343480358560E+00
 CE -1.879541074586E+00  1.088488654129E+00 -3.124640478080E+00
 CE -3.762035613014E+00  4.348883858667E+00 -3.124640478080E+00
 CE  2.953463851057E-03 -2.171906550400E+00 -3.124640478080E+00
 CE  1.876587610735E+00  1.083417896271E+00 -3.124640478080E+00
 CE -5.906927702114E-03  4.343813100807E+00 -3.124640478080E+00
 CE  3.759082149173E+00 -2.176977308260E+00 -3.124640478080E+00
 CE -5.635669759948E+00  1.093559411974E+00 -3.124640478080E+00
 CE -7.518164298341E+00  4.353954616531E+00 -3.124640478080E+00
 CE -3.753175221471E+00 -2.166835792547E+00 -3.124640478080E+00
 O   1.879541074586E+00 -1.088488654129E+00 -3.905800597599E+00
 O  -2.953463851057E-03  2.171906550400E+00 -3.905800597599E+00
 O   3.762035613014E+00 -4.348883858667E+00 -3.905800597599E+00
 O   5.635669759948E+00 -1.093559411974E+00 -3.905800597599E+00
 O   3.753175221475E+00  2.166835792547E+00 -3.905800597599E+00
 O   7.518164298341E+00 -4.353954616531E+00 -3.905800597599E+00
 O  -1.876587610735E+00 -1.083417896271E+00 -3.905800597599E+00
 O  -3.759082149176E+00  2.176977308260E+00 -3.905800597599E+00
 O   5.906927701114E-03 -4.343813100807E+00 -3.905800597599E+00
 O   1.138991368517E+01  4.476282187828E+00  6.904323974511E+00
 H   1.126424733110E+01  4.375282328628E+00  5.298861107864E+00
 H   1.072077570851E+01  5.182958675824E+00  7.058413397166E+00
 O   2.880508812316E-01  1.816245399484E+00  5.952078559052E+00
 H   2.106587587190E-01  2.587253864625E+00  6.557612285133E+00
 H   1.237804380250E+00  1.593224013703E+00  5.849987684126E+00
 H  -2.580595493841E-02 -4.990647933935E+00  6.538364639081E+00
 O  -4.778762973200E-01 -4.205809744905E+00  6.131964597563E+00
 H  -1.878832783305E-01 -3.417697518464E+00  6.620026635653E+00
 H   1.225725621671E+01  4.943625084638E+00  6.899935342794E+00
 O   1.506864471130E+01  2.454475938736E+00  5.834145607352E+00
 H   1.496727921908E+01  3.416290549689E+00  5.672356164900E+00
 H   1.600973202260E+01  2.365031761258E+00  6.101596313571E+00
 H  -3.426876269334E+00 -2.986760614604E+00  5.683592871578E+00
 O  -3.294015614908E+00 -3.929620667397E+00  5.947115157338E+00
 H  -2.327236752892E+00 -4.049393946359E+00  6.110526443714E+00
 O  -3.365157435299E+00  8.715494325935E-01  6.489487688828E+00
 H  -2.722507470717E+00  8.862196989954E-01  5.729809269868E+00
 H  -2.883616843352E+00  4.839980588610E-01  7.239366851366E+00
 O  -5.610299493416E+00 -7.697457474701E-01  5.848701055271E+00
 H  -4.859597536916E+00 -2.246775749068E-01  6.179070438857E+00
 H  -5.824093798305E+00 -1.500810109364E+00  6.462268553649E+00
 O  -4.737475016930E+00  3.318603751045E+00  6.333857361809E+00
 H  -4.207437489356E+00  3.751672720692E+00  5.606190753009E+00
 H  -4.206491789672E+00  2.575658897972E+00  6.693525299621E+00
 O   1.582581918174E+01  8.824971593561E+00  5.957657219056E+00
 H   1.649685558805E+01  8.278174925736E+00  5.456457250627E+00
 O   2.107467023858E+01  6.757874047767E+00  6.664667745699E+00
 H   2.042883391940E+01  7.027984266490E+00  7.336138594833E+00
 H   2.076819162487E+01  7.098189770023E+00  5.767170794006E+00
 H   1.624022198196E+01  9.699089035749E+00  6.112629514850E+00
  112
CERIA BULK                               E -1.7660272491535E+04 DE 9.5E-09(  3)
 O  -1.968255657889E+00  1.133414444128E+00  4.089702535014E+00
 O  -3.722570106458E+00  4.377391147665E+00  4.116286004619E+00
 O   1.183492698529E-01 -2.177229962325E+00  4.082054271416E+00
 O   1.890164231680E+00  1.009728748277E+00  4.016430195414E+00
 O  -3.873416776025E-02  4.370603082488E+00  4.291658602233E+00
 O   3.702400618856E+00 -2.249156763033E+00  4.151671681280E+00
 O  -5.593323252842E+00  1.145066467225E+00  3.935866723943E+00
 O  -7.521884114057E+00  4.367240079299E+00  3.955008810540E+00
 O  -3.705067237484E+00 -2.129322909839E+00  4.066428601430E+00
 CE  1.897316427601E+00 -1.096610514026E+00  3.196768403681E+00
 CE -1.345507683568E-02  2.117824543727E+00  3.288513798651E+00
 CE  3.721943574426E+00 -4.325403768456E+00  3.202334338075E+00
 CE  5.653313487053E+00 -1.079684620667E+00  3.318873675926E+00
 CE  3.761360761525E+00  2.146771601128E+00  3.255397099710E+00
 CE  7.578568744216E+00 -4.328518077621E+00  3.246210160498E+00
 CE -1.888706083190E+00 -1.053690666429E+00  3.260617621566E+00
 CE -3.772141726843E+00  2.188883977276E+00  3.173453633108E+00
 CE  1.130816946678E-02 -4.325255314854E+00  3.274440796617E+00
 O  -4.208903787540E-02  9.968407826021E-03  2.460839187050E+00
 O  -1.821739116508E+00  3.293191203296E+00  2.446353382317E+00
 O   1.888641192212E+00 -3.276753750996E+00  2.395208664997E+00
 O   3.787776507431E+00 -5.589900569361E-02  2.449537044089E+00
 O   1.787054505313E+00  3.269169350936E+00  2.502226293983E+00
 O   5.645510602196E+00 -3.291550530329E+00  2.493537410562E+00
 O  -3.744306133441E+00 -1.005912271609E-02  2.421620970543E+00
 O  -5.613118507396E+00  3.315043663449E+00  2.418318963615E+00
 O  -1.840507919199E+00 -3.210822912185E+00  2.464431833870E+00
 O   1.870774176257E+00 -1.076296602962E+00  8.814956487385E-01
 O  -8.911188625559E-04  2.152722730031E+00  8.828324136413E-01
 O   3.769072464343E+00 -4.338836629452E+00  8.740711220208E-01
 O   5.644766046658E+00 -1.113125439237E+00  8.849353572382E-01
 O   3.735401602394E+00  2.167743411203E+00  9.128888159095E-01
 O   7.541601341119E+00 -4.347678518838E+00  9.099412378221E-01
 O  -1.874144027258E+00 -1.080300151786E+00  8.707808359217E-01
 O  -3.741976749914E+00  2.185312721455E+00  8.784951699378E-01
 O  -3.617253036023E-03 -4.327165728327E+00  8.692921467037E-01
 CE -4.974186327740E-03  6.144084958750E-03  3.054415386613E-02
 CE -1.867546663083E+00  3.261979877323E+00  3.379213338934E-02
 CE  1.878731344567E+00 -3.258906392923E+00  1.955384438387E-02
 CE  3.765761143519E+00 -8.405085749863E-03  4.397613064094E-02
 CE  1.870790856523E+00  3.251685914822E+00  5.778288280739E-02
 CE  5.647262519377E+00 -3.257485523254E+00  5.305215107528E-02
 CE -3.755684808269E+00 -4.317284302951E-03  4.034043301366E-02
 CE -5.643796850948E+00  3.278653292094E+00  4.147758422945E-02
 CE -1.865023812590E+00 -3.249270712154E+00  4.083005986392E-02
 O  -1.879137635021E+00  1.094031040408E+00 -7.533718805794E-01
 O  -3.759398853917E+00  4.350519282080E+00 -7.466384107858E-01
 O   6.640166732337E-03 -2.165346674717E+00 -7.577655675337E-01
 O   1.885185638014E+00  1.088654729133E+00 -7.470076647242E-01
 O   7.073979911003E-03  4.346780931695E+00 -7.361427586779E-01
 O   3.762114789664E+00 -2.171278740125E+00 -7.468241436717E-01
 O  -5.638839981129E+00  1.099433852512E+00 -7.345630547108E-01
 O  -7.522334756231E+00  4.348316152288E+00 -7.432646736114E-01
 O  -3.750855673845E+00 -2.172086923972E+00 -7.493636288174E-01
 O   0.000000000000E+00  0.000000000000E+00 -2.343480358560E+00
 O  -1.882493524587E+00  3.260395459553E+00 -2.343480358560E+00
 O   1.882493524592E+00 -3.260395459548E+00 -2.343480358560E+00
 O   3.756127519647E+00 -5.070263297824E-03 -2.343480358560E+00
 O   1.873633995055E+00  3.255325196259E+00 -2.343480358560E+00
 O   5.638621044247E+00 -3.265465722845E+00 -2.343480358560E+00
 O  -3.756127519648E+00  5.070263287825E-03 -2.343480358560E+00
 O  -5.638621044247E+00  3.265465722845E+00 -2.343480358560E+00
 O  -1.873633995061E+00 -3.255325196254E+00 -2.343480358560E+00
 CE -1.879540348080E+00  1.088488574280E+00 -3.124640478080E+00
 CE -3.762033872661E+00  4.348884033837E+00 -3.124640478080E+00
 CE  2.953176510848E-03 -2.171906885266E+00 -3.124640478080E+00
 CE  1.876587171569E+00  1.083418310986E+00 -3.124640478080E+00
 CE -5.906353021695E-03  4.343813770541E+00 -3.124640478080E+00
 CE  3.759080696160E+00 -2.176977148563E+00 -3.124640478080E+00
 CE -5.635667867768E+00  1.093558837562E+00 -3.124640478080E+00
 CE -7.518161392315E+00  4.353954297138E+00 -3.124640478080E+00
 CE -3.753174343139E+00 -2.166836621978E+00 -3.124640478080E+00
 O   1.879540348080E+00 -1.088488574280E+00 -3.905800597599E+00
 O  -2.953176510848E-03  2.171906885266E+00 -3.905800597599E+00
 O   3.762033872661E+00 -4.348884033837E+00 -3.905800597599E+00
 O   5.635667867768E+00 -1.093558837562E+00 -3.905800597599E+00
 O   3.753174343143E+00  2.166836621978E+00 -3.905800597599E+00
 O   7.518161392315E+00 -4.353954297138E+00 -3.905800597599E+00
 O  -1.876587171569E+00 -1.083418310986E+00 -3.905800597599E+00
 O  -3.759080696163E+00  2.176977148563E+00 -3.905800597599E+00
 O   5.906353020696E-03 -4.343813770541E+00 -3.905800597599E+00
 O   1.138986521565E+01  4.476306573721E+00  6.904314573146E+00
 H   1.126426069310E+01  4.375324097937E+00  5.298868881789E+00
 H   1.072077240370E+01  5.183010047072E+00  7.058467170643E+00
 O   2.880655838423E-01  1.816275986498E+00  5.951932906812E+00
 H   2.106871070379E-01  2.587196910984E+00  6.557585379125E+00
 H   1.237819986560E+00  1.593190079401E+00  5.849967637607E+00
 H  -2.581389539752E-02 -4.990632665691E+00  6.538379497505E+00
 O  -4.779468736344E-01 -4.205808328986E+00  6.132032276224E+00
 H  -1.878375772556E-01 -3.417709556472E+00  6.619977806424E+00
 H   1.225723473555E+01  4.943597429654E+00  6.899977052848E+00
 O   1.506866629709E+01  2.454532674645E+00  5.834267241081E+00
 H   1.496726728460E+01  3.416329869039E+00  5.672456367260E+00
 H   1.600977829289E+01  2.365017978815E+00  6.101625315694E+00
 H  -3.426886359595E+00 -2.986764106967E+00  5.683633849307E+00
 O  -3.294026896819E+00 -3.929645345050E+00  5.947077025504E+00
 H  -2.327255476527E+00 -4.049420748419E+00  6.110538887784E+00
 O  -3.365105796834E+00  8.716307153692E-01  6.489534501499E+00
 H  -2.722533781908E+00  8.862387688290E-01  5.729801579675E+00
 H  -2.883574091863E+00  4.839727000159E-01  7.239355195032E+00
 O  -5.610314024612E+00 -7.696822293820E-01  5.848731651857E+00
 H  -4.859459041186E+00 -2.248557708527E-01  6.179081314416E+00
 H  -5.824115395218E+00 -1.500783571021E+00  6.462307878467E+00
 O  -4.737523216648E+00  3.318617677080E+00  6.333823960482E+00
 H  -4.207466434045E+00  3.751688154755E+00  5.606194433663E+00
 H  -4.206563167918E+00  2.575668821514E+00  6.693519920267E+00
 O   1.582579580448E+01  8.824933712411E+00  5.957676558578E+00
 H   1.649685018246E+01  8.278152625520E+00  5.456438828471E+00
 O   2.107456343788E+01  6.757805531501E+00  6.664604929804E+00
 H   2.042892045937E+01  7.028020440833E+00  7.336119184400E+00
 H   2.076812984458E+01  7.098251673537E+00  5.767158105816E+00
 H   1.624015806845E+01  9.699089795968E+00  6.112657646103E+00
  112
CERIA BULK                               E -1.7660272491596E+04 DE-1.2E-07(  5)
 O  -1.968255657889E+00  1.133414444128E+00  4.089702535014E+00
 O  -3.722570106458E+00  4.377391147665E+00  4.116286004619E+00
 O   1.183492698529E-01 -2.177229962325E+00  4.082054271416E+00
 O   1.890164231680E+00  1.009728748277E+00  4.016430195414E+00
 O  -3.873416776025E-02  4.370603082488E+00  4.291658602233E+00
 O   3.702400618856E+00 -2.249156763033E+00  4.151671681280E+00
 O  -5.593323252842E+00  1.145066467225E+00  3.935866723943E+00
 O  -7.521884114057E+00  4.367240079299E+00  3.955008810540E+00
 O  -3.705067237484E+00 -2.129322909839E+00  4.066428601430E+00
 CE  1.897316427601E+00 -1.096610514026E+00  3.196768403681E+00
 CE -1.345507683568E-02  2.117824543727E+00  3.288513798651E+00
 CE  3.721943574426E+00 -4.325403768456E+00  3.202334338075E+00
 CE  5.653313487053E+00 -1.079684620667E+00  3.318873675926E+00
 CE  3.761360761525E+00  2.146771601128E+00  3.255397099710E+00
 CE  7.578568744216E+00 -4.328518077621E+00  3.246210160498E+00
 CE -1.888706083190E+00 -1.053690666429E+00  3.260617621566E+00
 CE -3.772141726843E+00  2.188883977276E+00  3.173453633108E+00
 CE  1.130816946678E-02 -4.325255314854E+00  3.274440796617E+00
 O  -4.208903787540E-02  9.968407826021E-03  2.460839187050E+00
 O  -1.821739116508E+00  3.293191203296E+00  2.446353382317E+00
 O   1.888641192212E+00 -3.276753750996E+00  2.395208664997E+00
 O   3.787776507431E+00 -5.589900569361E-02  2.449537044089E+00
 O   1.787054505313E+00  3.269169350936E+00  2.502226293983E+00
 O   5.645510602196E+00 -3.291550530329E+00  2.493537410562E+00
 O  -3.744306133441E+00 -1.005912271609E-02  2.421620970543E+00
 O  -5.613118507396E+00  3.315043663449E+00  2.418318963615E+00
 O  -1.840507919199E+00 -3.210822912185E+00  2.464431833870E+00
 O   1.870774176257E+00 -1.076296602962E+00  8.814956487385E-01
 O  -8.911188625559E-04  2.152722730031E+00  8.828324136413E-01
 O   3.769072464343E+00 -4.338836629452E+00  8.740711220208E-01
 O   5.644766046658E+00 -1.113125439237E+00  8.849353572382E-01
 O   3.735401602394E+00  2.167743411203E+00  9.128888159095E-01
 O   7.541601341119E+00 -4.347678518838E+00  9.099412378221E-01
 O  -1.874144027258E+00 -1.080300151786E+00  8.707808359217E-01
 O  -3.741976749914E+00  2.185312721455E+00  8.784951699378E-01
 O  -3.617253036023E-03 -4.327165728327E+00  8.692921467037E-01
 CE -4.974186327740E-03  6.144084958750E-03  3.054415386613E-02
 CE -1.867546663083E+00  3.261979877323E+00  3.379213338934E-02
 CE  1.878731344567E+00 -3.258906392923E+00  1.955384438387E-02
 CE  3.765761143519E+00 -8.405085749863E-03  4.397613064094E-02
 CE  1.870790856523E+00  3.251685914822E+00  5.778288280739E-02
 CE  5.647262519377E+00 -3.257485523254E+00  5.305215107528E-02
 CE -3.755684808269E+00 -4.317284302951E-03  4.034043301366E-02
 CE -5.643796850948E+00  3.278653292094E+00  4.147758422945E-02
 CE -1.865023812590E+00 -3.249270712154E+00  4.083005986392E-02
 O  -1.879137635021E+00  1.094031040408E+00 -7.533718805794E-01
 O  -3.759398853917E+00  4.350519282080E+00 -7.466384107858E-01
 O   6.640166732337E-03 -2.165346674717E+00 -7.577655675337E-01
 O   1.885185638014E+00  1.088654729133E+00 -7.470076647242E-01
 O   7.073979911003E-03  4.346780931695E+00 -7.361427586779E-01
 O   3.762114789664E+00 -2.171278740125E+00 -7.468241436717E-01
 O  -5.638839981129E+00  1.099433852512E+00 -7.345630547108E-01
 O  -7.522334756231E+00  4.348316152288E+00 -7.432646736114E-01
 O  -3.750855673845E+00 -2.172086923972E+00 -7.493636288174E-01
 O   0.000000000000E+00  0.000000000000E+00 -2.343480358560E+00
 O  -1.882493524587E+00  3.260395459553E+00 -2.343480358560E+00
 O   1.882493524592E+00 -3.260395459548E+00 -2.343480358560E+00
 O   3.756127519647E+00 -5.070263297824E-03 -2.343480358560E+00
 O   1.873633995055E+00  3.255325196259E+00 -2.343480358560E+00
 O   5.638621044247E+00 -3.265465722845E+00 -2.343480358560E+00
 O  -3.756127519648E+00  5.070263287825E-03 -2.343480358560E+00
 O  -5.638621044247E+00  3.265465722845E+00 -2.343480358560E+00
 O  -1.873633995061E+00 -3.255325196254E+00 -2.343480358560E+00
 CE -1.879540348080E+00  1.088488574280E+00 -3.124640478080E+00
 CE -3.762033872661E+00  4.348884033837E+00 -3.124640478080E+00
 CE  2.953176510848E-03 -2.171906885266E+00 -3.124640478080E+00
 CE  1.876587171569E+00  1.083418310986E+00 -3.124640478080E+00
 CE -5.906353021695E-03  4.343813770541E+00 -3.124640478080E+00
 CE  3.759080696160E+00 -2.176977148563E+00 -3.124640478080E+00
 CE -5.635667867768E+00  1.093558837562E+00 -3.124640478080E+00
 CE -7.518161392315E+00  4.353954297138E+00 -3.124640478080E+00
 CE -3.753174343139E+00 -2.166836621978E+00 -3.124640478080E+00
 O   1.879540348080E+00 -1.088488574280E+00 -3.905800597599E+00
 O  -2.953176510848E-03  2.171906885266E+00 -3.905800597599E+00
 O   3.762033872661E+00 -4.348884033837E+00 -3.905800597599E+00
 O   5.635667867768E+00 -1.093558837562E+00 -3.905800597599E+00
 O   3.753174343143E+00  2.166836621978E+00 -3.905800597599E+00
 O   7.518161392315E+00 -4.353954297138E+00 -3.905800597599E+00
 O  -1.876587171569E+00 -1.083418310986E+00 -3.905800597599E+00
 O  -3.759080696163E+00  2.176977148563E+00 -3.905800597599E+00
 O   5.906353020696E-03 -4.343813770541E+00 -3.905800597599E+00
 O   1.138986521565E+01  4.476306573721E+00  6.904314573146E+00
 H   1.126426069310E+01  4.375324097937E+00  5.298868881789E+00
 H   1.072077240370E+01  5.183010047072E+00  7.058467170643E+00
 O   2.880655838423E-01  1.816275986498E+00  5.951932906812E+00
 H   2.106871070379E-01  2.587196910984E+00  6.557585379125E+00
 H   1.237819986560E+00  1.593190079401E+00  5.849967637607E+00
 H  -2.581389539752E-02 -4.990632665691E+00  6.538379497505E+00
 O  -4.779468736344E-01 -4.205808328986E+00  6.132032276224E+00
 H  -1.878375772556E-01 -3.417709556472E+00  6.619977806424E+00
 H   1.225723473555E+01  4.943597429654E+00  6.899977052848E+00
 O   1.506866629709E+01  2.454532674645E+00  5.834267241081E+00
 H   1.496726728460E+01  3.416329869039E+00  5.672456367260E+00
 H   1.600977829289E+01  2.365017978815E+00  6.101625315694E+00
 H  -3.426886359595E+00 -2.986764106967E+00  5.683633849307E+00
 O  -3.294026896819E+00 -3.929645345050E+00  5.947077025504E+00
 H  -2.327255476527E+00 -4.049420748419E+00  6.110538887784E+00
 O  -3.365105796834E+00  8.716307153692E-01  6.489534501499E+00
 H  -2.722533781908E+00  8.862387688290E-01  5.729801579675E+00
 H  -2.883574091863E+00  4.839727000159E-01  7.239355195032E+00
 O  -5.610314024612E+00 -7.696822293820E-01  5.848731651857E+00
 H  -4.859459041186E+00 -2.248557708527E-01  6.179081314416E+00
 H  -5.824115395218E+00 -1.500783571021E+00  6.462307878467E+00
 O  -4.737523216648E+00  3.318617677080E+00  6.333823960482E+00
 H  -4.207466434045E+00  3.751688154755E+00  5.606194433663E+00
 H  -4.206563167918E+00  2.575668821514E+00  6.693519920267E+00
 O   1.582579580448E+01  8.824933712411E+00  5.957676558578E+00
 H   1.649685018246E+01  8.278152625520E+00  5.456438828471E+00
 O   2.107456343788E+01  6.757805531501E+00  6.664604929804E+00
 H   2.042892045937E+01  7.028020440833E+00  7.336119184400E+00
 H   2.076812984458E+01  7.098251673537E+00  5.767158105816E+00
 H   1.624015806845E+01  9.699089795968E+00  6.112657646103E+00
