  110
CERIA BULK                              
 O  -1.986557648875E+00  1.059911960796E+00  4.076250094090E+00
 O  -3.782734862988E+00  4.209286565310E+00  4.176617113863E+00
 O   3.152663510800E-02 -2.173304206318E+00  4.109829445639E+00
 O   1.910798385327E+00  1.327285781844E+00  3.725013531839E+00
 O   2.467358183300E-01  4.208668276584E+00  3.977735467133E+00
 O   3.747293878022E+00 -2.020187017476E+00  4.027053673342E+00
 O  -5.624826529056E+00  1.010565367652E+00  4.199716466881E+00
 O  -7.834310678932E+00  4.222359175531E+00  3.675331047140E+00
 O  -3.934138983233E+00 -2.234121828874E+00  4.281082115665E+00
 CE  1.913686049115E+00 -1.071756984357E+00  3.199167574565E+00
 CE -1.285100229370E-01  2.088113231922E+00  3.329390205245E+00
 CE  3.732373127784E+00 -4.340137859570E+00  3.339108529504E+00
 CE  5.628444572736E+00 -1.089967171859E+00  3.207214095942E+00
 CE  3.894925430046E+00  2.122152043069E+00  3.310221055786E+00
 CE  7.516222807443E+00 -4.202457375869E+00  3.215631527184E+00
 CE -1.892450142920E+00 -1.080588871307E+00  3.311751110258E+00
 CE -3.780371924794E+00  2.137432229440E+00  3.211198130297E+00
 CE -1.499279173800E-02 -4.353158603609E+00  3.265838886386E+00
 O  -6.238853831400E-02 -3.013727426300E-02  2.500727479714E+00
 O  -1.910395778238E+00  3.222943460877E+00  2.461426026281E+00
 O   1.877765045897E+00 -3.274688005332E+00  2.465205067734E+00
 O   3.852702204098E+00  3.630987995200E-02  2.396960155387E+00
 O   5.653256300693E+00 -3.218027795159E+00  2.427194191741E+00
 O  -3.811853582825E+00 -7.279032687300E-02  2.438926218239E+00
 O  -5.629156244835E+00  3.167924200341E+00  2.453713996148E+00
 O  -1.953154274132E+00 -3.147240569947E+00  2.501346414067E+00
 O   1.923367957773E+00 -1.081266112419E+00  9.061818480880E-01
 O   1.626265346710E-01  2.291139360818E+00  1.033384607481E+00
 O   3.773272542888E+00 -4.356823213903E+00  8.615002944690E-01
 O   5.650710253550E+00 -1.088415752879E+00  8.368005701410E-01
 O   3.644843305095E+00  2.271858173500E+00  9.816965990920E-01
 O   7.516484043936E+00 -4.505650696602E+00  9.834210594150E-01
 O  -1.920441219227E+00 -1.052470234504E+00  8.661647035370E-01
 O  -3.772155761068E+00  2.148069184684E+00  8.714938155580E-01
 O  -1.038986037000E-02 -4.386336386916E+00  9.032922152570E-01
 CE -2.642777033000E-03 -1.963047635000E-03  6.570508957900E-02
 CE -1.879644537459E+00  3.267894699656E+00  7.074835683200E-02
 CE  1.877077214370E+00 -3.271233224651E+00  5.996873373300E-02
 CE  3.770157173708E+00  1.102413201800E-02  4.067566279200E-02
 CE  1.899702617547E+00  3.254674562538E+00 -7.162021193700E-02
 CE  5.636317493173E+00 -3.263761696760E+00  4.128045233200E-02
 CE -3.769657108420E+00 -1.914136496100E-02  5.167588661700E-02
 CE -5.675918195264E+00  3.261930825048E+00  5.867022050500E-02
 CE -1.885886411295E+00 -3.253800533807E+00  6.036610425500E-02
 O  -1.872224659651E+00  1.138262608383E+00 -7.412802729370E-01
 O  -3.777729708338E+00  4.329099320264E+00 -7.494377692670E-01
 O   2.620866640900E-02 -2.190273004719E+00 -7.491073373460E-01
 O   1.917304423905E+00  1.095856068638E+00 -7.998087859200E-01
 O  -4.611980894000E-03  4.342854564189E+00 -7.998586255150E-01
 O   3.765375550157E+00 -2.169970653286E+00 -7.638366363250E-01
 O  -5.707293135720E+00  1.105130986936E+00 -7.339179451540E-01
 O  -7.544208800881E+00  4.306299114059E+00 -8.012242470090E-01
 O  -3.818446881039E+00 -2.214630696263E+00 -7.458612475460E-01
 O   0.000000000000E+00  0.000000000000E+00 -2.343480358560E+00
 O  -1.883913578031E+00  3.258678143807E+00 -2.343480358560E+00
 O   1.883913578036E+00 -3.258678143802E+00 -2.343480358560E+00
 O   3.777370647214E+00  5.512996516000E-03 -2.343480358560E+00
 O   1.893457069179E+00  3.264191140328E+00 -2.343480358560E+00
 O   5.661284225260E+00 -3.253165147286E+00 -2.343480358560E+00
 O  -3.777370647214E+00 -5.512996525000E-03 -2.343480358560E+00
 O  -5.661284225260E+00  3.253165147286E+00 -2.343480358560E+00
 O  -1.893457069184E+00 -3.264191140324E+00 -2.343480358560E+00
 CE -1.887094741750E+00  1.084388382428E+00 -3.124640478080E+00
 CE -3.771008319774E+00  4.343066526240E+00 -3.124640478080E+00
 CE -3.181163715000E-03 -2.174289761375E+00 -3.124640478080E+00
 CE  1.890275905465E+00  1.089901378947E+00 -3.124640478080E+00
 CE  6.362327433000E-03  4.348579522757E+00 -3.124640478080E+00
 CE  3.774189483501E+00 -2.168776764858E+00 -3.124640478080E+00
 CE -5.664465389006E+00  1.078875385896E+00 -3.124640478080E+00
 CE -7.548378966998E+00  4.337553529726E+00 -3.124640478080E+00
 CE -3.780551810933E+00 -2.179802757898E+00 -3.124640478080E+00
 O   1.887094741750E+00 -1.084388382428E+00 -3.905800597599E+00
 O   3.181163715000E-03  2.174289761375E+00 -3.905800597599E+00
 O   3.771008319774E+00 -4.343066526240E+00 -3.905800597599E+00
 O   5.664465389006E+00 -1.078875385896E+00 -3.905800597599E+00
 O   3.780551810937E+00  2.179802757899E+00 -3.905800597599E+00
 O   7.548378966998E+00 -4.337553529726E+00 -3.905800597599E+00
 O  -1.890275905465E+00 -1.089901378947E+00 -3.905800597599E+00
 O  -3.774189483503E+00  2.168776764858E+00 -3.905800597599E+00
 O  -6.362327434000E-03 -4.348579522757E+00 -3.905800597599E+00
 O   1.427295810546E+00  4.058062881980E+00  6.306965942066E+00
 H   8.774091490320E-01  4.156081672136E+00  5.455321620516E+00
 H   6.830870330954E+00 -4.992278056860E+00  6.902960196856E+00
 O   3.872325954210E+00  2.675593656429E+00  5.935323233563E+00
 H   4.147936405413E+00  1.931016483628E+00  6.516463147483E+00
 H   3.002507835345E+00  3.060623948472E+00  6.197576328119E+00
 H  -1.349087062444E+00 -2.295877967634E+00  6.019376370915E+00
 O  -1.983439682615E+00 -1.560985024597E+00  5.938564216692E+00
 H  -2.854844867953E+00 -1.965181098023E+00  5.713201868237E+00
 H  -4.994100922587E+00  4.694282537350E+00  5.888187097947E+00
 O  -2.730957034970E-01 -4.784004746257E+00  5.835063915843E+00
 H  -6.474662479406E+00  4.176801820139E+00  5.946778715262E+00
 O   1.357367284330E+00 -8.761418427960E-01  5.845423824803E+00
 H   7.005819399630E-01 -1.539237775596E+00  5.444794553137E+00
 H   2.038849126860E+00 -1.373613105958E+00  6.326038196806E+00
 O   5.915127751592E+00 -2.492825605695E+00  6.550586530513E+00
 H   6.489066209580E+00 -2.407274415932E+00  5.740829727744E+00
 H   5.662378605607E+00 -1.571522097214E+00  6.780140008246E+00
 H   4.581660283071E+00 -3.525997531287E+00  6.208979025106E+00
 O   3.863488450278E+00 -4.125586504967E+00  5.871423883157E+00
 H   3.811558108285E+00 -4.969179499921E+00  6.375495958589E+00
 O   1.406263037400E-02  1.705545304081E+00  5.968039382197E+00
 H   4.634476725780E-01  8.411584458130E-01  6.099887372424E+00
 H   5.823867722520E-01  2.402034370056E+00  6.363269737058E+00
 O  -5.902820074535E+00  4.402246172210E-01  6.721838262497E+00
 H  -5.716712747356E+00  6.775657382520E-01  5.748716075621E+00
 H  -5.134269692398E+00  7.669269078880E-01  7.218496398025E+00
 O  -2.641316208673E+00  3.114247217376E+00  6.444154399386E+00
 H  -3.073049990015E+00  3.469982193452E+00  5.623503915276E+00
 H  -2.030952598088E+00  2.396184292931E+00  6.181537225539E+00
  110
CERIA BULK                              
 O  -1.986557648875E+00  1.059911960796E+00  4.076250094090E+00
 O  -3.782734862988E+00  4.209286565310E+00  4.176617113863E+00
 O   3.152663510807E-02 -2.173304206318E+00  4.109829445639E+00
 O   1.910798385327E+00  1.327285781844E+00  3.725013531839E+00
 O   2.467358183297E-01  4.208668276584E+00  3.977735467133E+00
 O   3.747293878022E+00 -2.020187017476E+00  4.027053673342E+00
 O  -5.624826529056E+00  1.010565367652E+00  4.199716466881E+00
 O  -7.834310678932E+00  4.222359175531E+00  3.675331047140E+00
 O  -3.934138983233E+00 -2.234121828874E+00  4.281082115665E+00
 CE  1.913686049115E+00 -1.071756984357E+00  3.199167574565E+00
 CE -1.285100229366E-01  2.088113231922E+00  3.329390205245E+00
 CE  3.732373127784E+00 -4.340137859570E+00  3.339108529504E+00
 CE  5.628444572736E+00 -1.089967171859E+00  3.207214095942E+00
 CE  3.894925430046E+00  2.122152043069E+00  3.310221055786E+00
 CE  7.516222807443E+00 -4.202457375869E+00  3.215631527184E+00
 CE -1.892450142920E+00 -1.080588871307E+00  3.311751110258E+00
 CE -3.780371924794E+00  2.137432229440E+00  3.211198130297E+00
 CE -1.499279173833E-02 -4.353158603609E+00  3.265838886386E+00
 O  -6.238853831358E-02 -3.013727426270E-02  2.500727479714E+00
 O  -1.910395778238E+00  3.222943460877E+00  2.461426026281E+00
 O   1.877765045897E+00 -3.274688005332E+00  2.465205067733E+00
 O   3.852702204098E+00  3.630987995209E-02  2.396960155387E+00
 O   5.653256300693E+00 -3.218027795159E+00  2.427194191741E+00
 O  -3.811853582825E+00 -7.279032687301E-02  2.438926218239E+00
 O  -5.629156244836E+00  3.167924200341E+00  2.453713996148E+00
 O  -1.953154274132E+00 -3.147240569947E+00  2.501346414067E+00
 O   1.923367957772E+00 -1.081266112419E+00  9.061818480878E-01
 O   1.626265346707E-01  2.291139360818E+00  1.033384607481E+00
 O   3.773272542888E+00 -4.356823213903E+00  8.615002944691E-01
 O   5.650710253550E+00 -1.088415752879E+00  8.368005701405E-01
 O   3.644843305095E+00  2.271858173499E+00  9.816965990924E-01
 O   7.516484043935E+00 -4.505650696602E+00  9.834210594153E-01
 O  -1.920441219227E+00 -1.052470234504E+00  8.661647035367E-01
 O  -3.772155761068E+00  2.148069184684E+00  8.714938155579E-01
 O  -1.038986037045E-02 -4.386336386916E+00  9.032922152565E-01
 CE -2.642777033054E-03 -1.963047635238E-03  6.570508957883E-02
 CE -1.879644537459E+00  3.267894699656E+00  7.074835683243E-02
 CE  1.877077214370E+00 -3.271233224651E+00  5.996873373342E-02
 CE  3.770157173708E+00  1.102413201820E-02  4.067566279184E-02
 CE  1.899702617547E+00  3.254674562538E+00 -7.162021193708E-02
 CE  5.636317493173E+00 -3.263761696760E+00  4.128045233209E-02
 CE -3.769657108420E+00 -1.914136496074E-02  5.167588661670E-02
 CE -5.675918195264E+00  3.261930825048E+00  5.867022050500E-02
 CE -1.885886411295E+00 -3.253800533807E+00  6.036610425466E-02
 O  -1.872224659651E+00  1.138262608383E+00 -7.412802729371E-01
 O  -3.777729708338E+00  4.329099320264E+00 -7.494377692675E-01
 O   2.620866640911E-02 -2.190273004719E+00 -7.491073373459E-01
 O   1.917304423905E+00  1.095856068638E+00 -7.998087859195E-01
 O  -4.611980894257E-03  4.342854564189E+00 -7.998586255152E-01
 O   3.765375550157E+00 -2.169970653286E+00 -7.638366363253E-01
 O  -5.707293135720E+00  1.105130986936E+00 -7.339179451543E-01
 O  -7.544208800881E+00  4.306299114059E+00 -8.012242470085E-01
 O  -3.818446881039E+00 -2.214630696263E+00 -7.458612475460E-01
 O   0.000000000000E+00  0.000000000000E+00 -2.343480358560E+00
 O  -1.883913578031E+00  3.258678143807E+00 -2.343480358560E+00
 O   1.883913578036E+00 -3.258678143802E+00 -2.343480358560E+00
 O   3.777370647214E+00  5.512996515634E-03 -2.343480358560E+00
 O   1.893457069179E+00  3.264191140328E+00 -2.343480358560E+00
 O   5.661284225259E+00 -3.253165147286E+00 -2.343480358560E+00
 O  -3.777370647214E+00 -5.512996524635E-03 -2.343480358560E+00
 O  -5.661284225259E+00  3.253165147286E+00 -2.343480358560E+00
 O  -1.893457069184E+00 -3.264191140324E+00 -2.343480358560E+00
 CE -1.887094741750E+00  1.084388382428E+00 -3.124640478080E+00
 CE -3.771008319774E+00  4.343066526240E+00 -3.124640478080E+00
 CE -3.181163714548E-03 -2.174289761375E+00 -3.124640478080E+00
 CE  1.890275905465E+00  1.089901378947E+00 -3.124640478080E+00
 CE  6.362327433100E-03  4.348579522757E+00 -3.124640478080E+00
 CE  3.774189483501E+00 -2.168776764858E+00 -3.124640478080E+00
 CE -5.664465389007E+00  1.078875385896E+00 -3.124640478080E+00
 CE -7.548378966998E+00  4.337553529726E+00 -3.124640478080E+00
 CE -3.780551810933E+00 -2.179802757898E+00 -3.124640478080E+00
 O   1.887094741750E+00 -1.084388382428E+00 -3.905800597599E+00
 O   3.181163714548E-03  2.174289761375E+00 -3.905800597599E+00
 O   3.771008319774E+00 -4.343066526240E+00 -3.905800597599E+00
 O   5.664465389007E+00 -1.078875385896E+00 -3.905800597599E+00
 O   3.780551810937E+00  2.179802757899E+00 -3.905800597599E+00
 O   7.548378966998E+00 -4.337553529726E+00 -3.905800597599E+00
 O  -1.890275905465E+00 -1.089901378947E+00 -3.905800597599E+00
 O  -3.774189483503E+00  2.168776764858E+00 -3.905800597599E+00
 O  -6.362327434101E-03 -4.348579522757E+00 -3.905800597599E+00
 O   1.427295810546E+00  4.058062881980E+00  6.306965942066E+00
 H   8.774091490319E-01  4.156081672136E+00  5.455321620517E+00
 H   6.830870330953E+00 -4.992278056860E+00  6.902960196857E+00
 O   3.872325954210E+00  2.675593656429E+00  5.935323233563E+00
 H   4.147936405413E+00  1.931016483628E+00  6.516463147483E+00
 H   3.002507835345E+00  3.060623948472E+00  6.197576328119E+00
 H  -1.349087062444E+00 -2.295877967634E+00  6.019376370915E+00
 O  -1.983439682615E+00 -1.560985024597E+00  5.938564216692E+00
 H  -2.854844867953E+00 -1.965181098023E+00  5.713201868237E+00
 H  -4.994100922587E+00  4.694282537350E+00  5.888187097947E+00
 O  -2.730957034970E-01 -4.784004746257E+00  5.835063915843E+00
 H  -6.474662479406E+00  4.176801820139E+00  5.946778715262E+00
 O   1.357367284330E+00 -8.761418427960E-01  5.845423824803E+00
 H   7.005819399627E-01 -1.539237775596E+00  5.444794553137E+00
 H   2.038849126860E+00 -1.373613105958E+00  6.326038196806E+00
 O   5.915127751592E+00 -2.492825605695E+00  6.550586530513E+00
 H   6.489066209580E+00 -2.407274415932E+00  5.740829727744E+00
 H   5.662378605607E+00 -1.571522097214E+00  6.780140008246E+00
 H   4.581660283071E+00 -3.525997531287E+00  6.208979025106E+00
 O   3.863488450278E+00 -4.125586504967E+00  5.871423883157E+00
 H   3.811558108285E+00 -4.969179499921E+00  6.375495958588E+00
 O   1.406263037363E-02  1.705545304081E+00  5.968039382197E+00
 H   4.634476725785E-01  8.411584458134E-01  6.099887372424E+00
 H   5.823867722522E-01  2.402034370056E+00  6.363269737059E+00
 O  -5.902820074535E+00  4.402246172212E-01  6.721838262497E+00
 H  -5.716712747356E+00  6.775657382515E-01  5.748716075621E+00
 H  -5.134269692398E+00  7.669269078883E-01  7.218496398025E+00
 O  -2.641316208673E+00  3.114247217376E+00  6.444154399386E+00
 H  -3.073049990015E+00  3.469982193452E+00  5.623503915276E+00
 H  -2.030952598088E+00  2.396184292931E+00  6.181537225539E+00
  110
CERIA BULK                               E -1.7584429065996E+04 DE 4.4E-09(  7)
 O  -1.986556792553E+00  1.059909361579E+00  4.076242823369E+00
 O  -3.782743917674E+00  4.209284487806E+00  4.176631001881E+00
 O   3.153844310262E-02 -2.173314075273E+00  4.109833122093E+00
 O   1.910798024230E+00  1.327277048835E+00  3.725019079925E+00
 O   2.467490522719E-01  4.208653971930E+00  3.977744757719E+00
 O   3.747298416350E+00 -2.020204588485E+00  4.027049300415E+00
 O  -5.624827580871E+00  1.010569469086E+00  4.199717116441E+00
 O  -7.834298330718E+00  4.222370986986E+00  3.675333961524E+00
 O  -3.934138301956E+00 -2.234131137366E+00  4.281074807356E+00
 CE  1.913698602408E+00 -1.071752583412E+00  3.199169558958E+00
 CE -1.285056486207E-01  2.088112565075E+00  3.329396083992E+00
 CE  3.732359019585E+00 -4.340156376239E+00  3.339084935792E+00
 CE  5.628446722375E+00 -1.089944125610E+00  3.207208964897E+00
 CE  3.894924371981E+00  2.122159144463E+00  3.310219294355E+00
 CE  7.516212913673E+00 -4.202488311801E+00  3.215614912030E+00
 CE -1.892420904373E+00 -1.080586606474E+00  3.311771946086E+00
 CE -3.780373357668E+00  2.137433668818E+00  3.211197609394E+00
 CE -1.499365694577E-02 -4.353143265747E+00  3.265852064038E+00
 O  -6.238990830550E-02 -3.014621178615E-02  2.500722124794E+00
 O  -1.910396009483E+00  3.222929889136E+00  2.461432884470E+00
 O   1.877748111314E+00 -3.274694498413E+00  2.465208645519E+00
 O   3.852699317639E+00  3.631175064607E-02  2.396962205750E+00
 O   5.653260987921E+00 -3.218021869864E+00  2.427195052421E+00
 O  -3.811847657195E+00 -7.279292354301E-02  2.438927581092E+00
 O  -5.629155769281E+00  3.167921972557E+00  2.453714979386E+00
 O  -1.953161865961E+00 -3.147235403718E+00  2.501349167996E+00
 O   1.923369709548E+00 -1.081272665772E+00  9.061854234316E-01
 O   1.626327261072E-01  2.291134928463E+00  1.033393881261E+00
 O   3.773271669021E+00 -4.356807111955E+00  8.614982136646E-01
 O   5.650708451088E+00 -1.088411859159E+00  8.368089514071E-01
 O   3.644839529355E+00  2.271863050291E+00  9.816934791007E-01
 O   7.516481544108E+00 -4.505649470603E+00  9.834095101818E-01
 O  -1.920446151851E+00 -1.052462124661E+00  8.661709045591E-01
 O  -3.772153383431E+00  2.148061954414E+00  8.714948178597E-01
 O  -1.039536025595E-02 -4.386336988403E+00  9.032928633907E-01
 CE -2.641876639549E-03 -1.961742107264E-03  6.571001740821E-02
 CE -1.879625532823E+00  3.267909483705E+00  7.077336331799E-02
 CE  1.877075922304E+00 -3.271234546577E+00  5.996905096661E-02
 CE  3.770154434647E+00  1.102081835556E-02  4.067800478868E-02
 CE  1.899708429316E+00  3.254678937195E+00 -7.164695440945E-02
 CE  5.636319966649E+00 -3.263757801874E+00  4.129171925940E-02
 CE -3.769673110492E+00 -1.913003422822E-02  5.164534602298E-02
 CE -5.675914239035E+00  3.261937749930E+00  5.867468680503E-02
 CE -1.885888909770E+00 -3.253796126472E+00  6.034938941036E-02
 O  -1.872233177529E+00  1.138279391259E+00 -7.412783771878E-01
 O  -3.777728855016E+00  4.329098881107E+00 -7.494385756818E-01
 O   2.620704132853E-02 -2.190271522918E+00 -7.491076171057E-01
 O   1.917310755442E+00  1.095860087492E+00 -7.998031424400E-01
 O  -4.608788702810E-03  4.342853203296E+00 -7.998638993915E-01
 O   3.765378205432E+00 -2.169972685201E+00 -7.638364515250E-01
 O  -5.707297882865E+00  1.105134006937E+00 -7.339223456285E-01
 O  -7.544208863970E+00  4.306297663698E+00 -8.012311856701E-01
 O  -3.818442450833E+00 -2.214624406707E+00 -7.458593908421E-01
 O   0.000000000000E+00  0.000000000000E+00 -2.343480358560E+00
 O  -1.883913933191E+00  3.258678398071E+00 -2.343480358560E+00
 O   1.883913933196E+00 -3.258678398066E+00 -2.343480358560E+00
 O   3.777370718476E+00  5.512626451969E-03 -2.343480358560E+00
 O   1.893456785281E+00  3.264191024528E+00 -2.343480358560E+00
 O   5.661284651681E+00 -3.253165771614E+00 -2.343480358560E+00
 O  -3.777370718476E+00 -5.512626460969E-03 -2.343480358560E+00
 O  -5.661284651681E+00  3.253165771614E+00 -2.343480358560E+00
 O  -1.893456785286E+00 -3.264191024524E+00 -2.343480358560E+00
 CE -1.887094883890E+00  1.084388590538E+00 -3.124640478080E+00
 CE -3.771008817075E+00  4.343066988614E+00 -3.124640478080E+00
 CE -3.180950695104E-03 -2.174289807531E+00 -3.124640478080E+00
 CE  1.890275834586E+00  1.089901216993E+00 -3.124640478080E+00
 CE  6.361901394211E-03  4.348579615067E+00 -3.124640478080E+00
 CE  3.774189767782E+00 -2.168777181077E+00 -3.124640478080E+00
 CE -5.664465602409E+00  1.078875964069E+00 -3.124640478080E+00
 CE -7.548379535560E+00  4.337554362163E+00 -3.124640478080E+00
 CE -3.780551669175E+00 -2.179802433990E+00 -3.124640478080E+00
 O   1.887094883890E+00 -1.084388590538E+00 -3.905800597599E+00
 O   3.180950695104E-03  2.174289807531E+00 -3.905800597599E+00
 O   3.771008817075E+00 -4.343066988614E+00 -3.905800597599E+00
 O   5.664465602409E+00 -1.078875964069E+00 -3.905800597599E+00
 O   3.780551669179E+00  2.179802433991E+00 -3.905800597599E+00
 O   7.548379535560E+00 -4.337554362163E+00 -3.905800597599E+00
 O  -1.890275834586E+00 -1.089901216993E+00 -3.905800597599E+00
 O  -3.774189767784E+00  2.168777181077E+00 -3.905800597599E+00
 O  -6.361901395212E-03 -4.348579615067E+00 -3.905800597599E+00
 O   1.427299571214E+00  4.058062717720E+00  6.306964621679E+00
 H   8.774146105216E-01  4.156080829678E+00  5.455318539774E+00
 H   6.830872115794E+00 -4.992281994179E+00  6.902960845977E+00
 O   3.872320773993E+00  2.675587498172E+00  5.935323289089E+00
 H   4.147929813138E+00  1.931010753874E+00  6.516465619966E+00
 H   3.002508231650E+00  3.060627004575E+00  6.197578683085E+00
 H  -1.349090469452E+00 -2.295884110176E+00  6.019386828635E+00
 O  -1.983440304337E+00 -1.560985222196E+00  5.938559309298E+00
 H  -2.854842302632E+00 -1.965178017807E+00  5.713188581954E+00
 H  -4.994098178549E+00  4.694272477221E+00  5.888181363887E+00
 O  -2.730918540856E-01 -4.784010668266E+00  5.835057892634E+00
 H  -6.474665549983E+00  4.176801021944E+00  5.946781820455E+00
 O   1.357365971316E+00 -8.761364949235E-01  5.845414895549E+00
 H   7.005811301600E-01 -1.539236708942E+00  5.444799301060E+00
 H   2.038843610258E+00 -1.373616506720E+00  6.326037353427E+00
 O   5.915131096541E+00 -2.492826443104E+00  6.550583911325E+00
 H   6.489051839246E+00 -2.407281390718E+00  5.740852106292E+00
 H   5.662381151157E+00 -1.571526713691E+00  6.780143478135E+00
 H   4.581642337254E+00 -3.525965634185E+00  6.208973288326E+00
 O   3.863500411914E+00 -4.125587907533E+00  5.871417634168E+00
 H   3.811560895589E+00 -4.969176184006E+00  6.375506651148E+00
 O   1.405995256418E-02  1.705543307411E+00  5.968028563137E+00
 H   4.634379085766E-01  8.411578475905E-01  6.099888129103E+00
 H   5.823802905550E-01  2.402032511139E+00  6.363267145772E+00
 O  -5.902820999101E+00  4.402280715507E-01  6.721837583954E+00
 H  -5.716714707938E+00  6.775707691247E-01  5.748715622718E+00
 H  -5.134269176439E+00  7.669296975467E-01  7.218496090886E+00
 O  -2.641312063880E+00  3.114251120606E+00  6.444152509237E+00
 H  -3.073050015414E+00  3.469974658698E+00  5.623509575034E+00
 H  -2.030950075094E+00  2.396181515352E+00  6.181530256230E+00
  110
CERIA BULK                               E -1.7584429066006E+04 DE-1.0E-08(  7)
 O  -1.986556792553E+00  1.059909361579E+00  4.076242823369E+00
 O  -3.782743917674E+00  4.209284487806E+00  4.176631001881E+00
 O   3.153844310262E-02 -2.173314075273E+00  4.109833122093E+00
 O   1.910798024230E+00  1.327277048835E+00  3.725019079925E+00
 O   2.467490522719E-01  4.208653971930E+00  3.977744757719E+00
 O   3.747298416350E+00 -2.020204588485E+00  4.027049300415E+00
 O  -5.624827580871E+00  1.010569469086E+00  4.199717116441E+00
 O  -7.834298330718E+00  4.222370986986E+00  3.675333961524E+00
 O  -3.934138301956E+00 -2.234131137366E+00  4.281074807356E+00
 CE  1.913698602408E+00 -1.071752583412E+00  3.199169558958E+00
 CE -1.285056486207E-01  2.088112565075E+00  3.329396083992E+00
 CE  3.732359019585E+00 -4.340156376239E+00  3.339084935792E+00
 CE  5.628446722375E+00 -1.089944125610E+00  3.207208964897E+00
 CE  3.894924371981E+00  2.122159144463E+00  3.310219294355E+00
 CE  7.516212913673E+00 -4.202488311801E+00  3.215614912030E+00
 CE -1.892420904373E+00 -1.080586606474E+00  3.311771946086E+00
 CE -3.780373357668E+00  2.137433668818E+00  3.211197609394E+00
 CE -1.499365694577E-02 -4.353143265747E+00  3.265852064038E+00
 O  -6.238990830550E-02 -3.014621178615E-02  2.500722124794E+00
 O  -1.910396009483E+00  3.222929889136E+00  2.461432884470E+00
 O   1.877748111314E+00 -3.274694498413E+00  2.465208645519E+00
 O   3.852699317639E+00  3.631175064607E-02  2.396962205750E+00
 O   5.653260987921E+00 -3.218021869864E+00  2.427195052421E+00
 O  -3.811847657195E+00 -7.279292354301E-02  2.438927581092E+00
 O  -5.629155769281E+00  3.167921972557E+00  2.453714979386E+00
 O  -1.953161865961E+00 -3.147235403718E+00  2.501349167996E+00
 O   1.923369709548E+00 -1.081272665772E+00  9.061854234316E-01
 O   1.626327261072E-01  2.291134928463E+00  1.033393881261E+00
 O   3.773271669021E+00 -4.356807111955E+00  8.614982136646E-01
 O   5.650708451088E+00 -1.088411859159E+00  8.368089514071E-01
 O   3.644839529355E+00  2.271863050291E+00  9.816934791007E-01
 O   7.516481544108E+00 -4.505649470603E+00  9.834095101818E-01
 O  -1.920446151851E+00 -1.052462124661E+00  8.661709045591E-01
 O  -3.772153383431E+00  2.148061954414E+00  8.714948178597E-01
 O  -1.039536025595E-02 -4.386336988403E+00  9.032928633907E-01
 CE -2.641876639549E-03 -1.961742107264E-03  6.571001740821E-02
 CE -1.879625532823E+00  3.267909483705E+00  7.077336331799E-02
 CE  1.877075922304E+00 -3.271234546577E+00  5.996905096661E-02
 CE  3.770154434647E+00  1.102081835556E-02  4.067800478868E-02
 CE  1.899708429316E+00  3.254678937195E+00 -7.164695440945E-02
 CE  5.636319966649E+00 -3.263757801874E+00  4.129171925940E-02
 CE -3.769673110492E+00 -1.913003422822E-02  5.164534602298E-02
 CE -5.675914239035E+00  3.261937749930E+00  5.867468680503E-02
 CE -1.885888909770E+00 -3.253796126472E+00  6.034938941036E-02
 O  -1.872233177529E+00  1.138279391259E+00 -7.412783771878E-01
 O  -3.777728855016E+00  4.329098881107E+00 -7.494385756818E-01
 O   2.620704132853E-02 -2.190271522918E+00 -7.491076171057E-01
 O   1.917310755442E+00  1.095860087492E+00 -7.998031424400E-01
 O  -4.608788702810E-03  4.342853203296E+00 -7.998638993915E-01
 O   3.765378205432E+00 -2.169972685201E+00 -7.638364515250E-01
 O  -5.707297882865E+00  1.105134006937E+00 -7.339223456285E-01
 O  -7.544208863970E+00  4.306297663698E+00 -8.012311856701E-01
 O  -3.818442450833E+00 -2.214624406707E+00 -7.458593908421E-01
 O   0.000000000000E+00  0.000000000000E+00 -2.343480358560E+00
 O  -1.883913933191E+00  3.258678398071E+00 -2.343480358560E+00
 O   1.883913933196E+00 -3.258678398066E+00 -2.343480358560E+00
 O   3.777370718476E+00  5.512626451969E-03 -2.343480358560E+00
 O   1.893456785281E+00  3.264191024528E+00 -2.343480358560E+00
 O   5.661284651681E+00 -3.253165771614E+00 -2.343480358560E+00
 O  -3.777370718476E+00 -5.512626460969E-03 -2.343480358560E+00
 O  -5.661284651681E+00  3.253165771614E+00 -2.343480358560E+00
 O  -1.893456785286E+00 -3.264191024524E+00 -2.343480358560E+00
 CE -1.887094883890E+00  1.084388590538E+00 -3.124640478080E+00
 CE -3.771008817075E+00  4.343066988614E+00 -3.124640478080E+00
 CE -3.180950695104E-03 -2.174289807531E+00 -3.124640478080E+00
 CE  1.890275834586E+00  1.089901216993E+00 -3.124640478080E+00
 CE  6.361901394211E-03  4.348579615067E+00 -3.124640478080E+00
 CE  3.774189767782E+00 -2.168777181077E+00 -3.124640478080E+00
 CE -5.664465602409E+00  1.078875964069E+00 -3.124640478080E+00
 CE -7.548379535560E+00  4.337554362163E+00 -3.124640478080E+00
 CE -3.780551669175E+00 -2.179802433990E+00 -3.124640478080E+00
 O   1.887094883890E+00 -1.084388590538E+00 -3.905800597599E+00
 O   3.180950695104E-03  2.174289807531E+00 -3.905800597599E+00
 O   3.771008817075E+00 -4.343066988614E+00 -3.905800597599E+00
 O   5.664465602409E+00 -1.078875964069E+00 -3.905800597599E+00
 O   3.780551669179E+00  2.179802433991E+00 -3.905800597599E+00
 O   7.548379535560E+00 -4.337554362163E+00 -3.905800597599E+00
 O  -1.890275834586E+00 -1.089901216993E+00 -3.905800597599E+00
 O  -3.774189767784E+00  2.168777181077E+00 -3.905800597599E+00
 O  -6.361901395212E-03 -4.348579615067E+00 -3.905800597599E+00
 O   1.427299571214E+00  4.058062717720E+00  6.306964621679E+00
 H   8.774146105216E-01  4.156080829678E+00  5.455318539774E+00
 H   6.830872115794E+00 -4.992281994179E+00  6.902960845977E+00
 O   3.872320773993E+00  2.675587498172E+00  5.935323289089E+00
 H   4.147929813138E+00  1.931010753874E+00  6.516465619966E+00
 H   3.002508231650E+00  3.060627004575E+00  6.197578683085E+00
 H  -1.349090469452E+00 -2.295884110176E+00  6.019386828635E+00
 O  -1.983440304337E+00 -1.560985222196E+00  5.938559309298E+00
 H  -2.854842302632E+00 -1.965178017807E+00  5.713188581954E+00
 H  -4.994098178549E+00  4.694272477221E+00  5.888181363887E+00
 O  -2.730918540856E-01 -4.784010668266E+00  5.835057892634E+00
 H  -6.474665549983E+00  4.176801021944E+00  5.946781820455E+00
 O   1.357365971316E+00 -8.761364949235E-01  5.845414895549E+00
 H   7.005811301600E-01 -1.539236708942E+00  5.444799301060E+00
 H   2.038843610258E+00 -1.373616506720E+00  6.326037353427E+00
 O   5.915131096541E+00 -2.492826443104E+00  6.550583911325E+00
 H   6.489051839246E+00 -2.407281390718E+00  5.740852106292E+00
 H   5.662381151157E+00 -1.571526713691E+00  6.780143478135E+00
 H   4.581642337254E+00 -3.525965634185E+00  6.208973288326E+00
 O   3.863500411914E+00 -4.125587907533E+00  5.871417634168E+00
 H   3.811560895589E+00 -4.969176184006E+00  6.375506651148E+00
 O   1.405995256418E-02  1.705543307411E+00  5.968028563137E+00
 H   4.634379085766E-01  8.411578475905E-01  6.099888129103E+00
 H   5.823802905550E-01  2.402032511139E+00  6.363267145772E+00
 O  -5.902820999101E+00  4.402280715507E-01  6.721837583954E+00
 H  -5.716714707938E+00  6.775707691247E-01  5.748715622718E+00
 H  -5.134269176439E+00  7.669296975467E-01  7.218496090886E+00
 O  -2.641312063880E+00  3.114251120606E+00  6.444152509237E+00
 H  -3.073050015414E+00  3.469974658698E+00  5.623509575034E+00
 H  -2.030950075094E+00  2.396181515352E+00  6.181530256230E+00
