  111
Ceria bulk                              
 O  -1.879524722112E+00  1.119739350258E+00  3.969648319618E+00
 O  -3.718636515141E+00  4.294392782735E+00  4.129764052824E+00
 O  -3.392973290400E-02 -2.086037522138E+00  4.067094365098E+00
 O   1.891175352271E+00  9.965265973130E-01  4.088004834076E+00
 O  -8.908907980500E-02  4.381643841624E+00  4.154951742672E+00
 O   3.893408350148E+00 -2.158516108701E+00  4.015996241286E+00
 O  -5.680197445472E+00  9.892873454780E-01  4.159944045134E+00
 O  -7.632840686744E+00  4.388823376707E+00  4.089120503632E+00
 O  -4.138014092858E+00 -2.271470583416E+00  4.383445958236E+00
 CE  1.936845953104E+00 -1.089259927116E+00  3.308164979103E+00
 CE -3.890743592000E-03  2.192614691388E+00  3.265998572929E+00
 CE  3.789691016531E+00 -4.406928679214E+00  3.322232163641E+00
 CE  5.698017106536E+00 -1.112443643081E+00  3.220334139163E+00
 CE  3.821299879532E+00  2.065684785404E+00  3.240672574319E+00
 CE  7.487359570335E+00 -4.327536604039E+00  3.201804490889E+00
 CE -1.839051140376E+00 -1.058036658761E+00  3.275747936849E+00
 CE -3.813097384535E+00  2.182289252096E+00  3.274619314111E+00
 CE  8.230852141700E-02 -4.320388764359E+00  3.246250184524E+00
 O  -1.122520929000E-03  1.622651620100E-02  2.421942560847E+00
 O  -1.895092950074E+00  3.304472778238E+00  2.423757488223E+00
 O   1.940931088616E+00 -3.295454967224E+00  2.490701819774E+00
 O   3.826952908799E+00 -1.989879226200E-02  2.399018440634E+00
 O   1.985403884791E+00  3.353712419108E+00  2.582676567704E+00
 O   5.691894304202E+00 -3.316548015118E+00  2.385512047402E+00
 O  -3.798347067245E+00 -8.357244743500E-02  2.463431498842E+00
 O  -5.808351163643E+00  3.320274968739E+00  2.559348953537E+00
 O  -1.986082040855E+00 -3.360350041420E+00  2.628425854807E+00
 O   1.901590790974E+00 -1.109337203016E+00  8.561278639040E-01
 O   4.971053425800E-02  2.228657704270E+00  8.971035491340E-01
 O   3.791655477450E+00 -4.402303082846E+00  8.446076677430E-01
 O   5.735749180338E+00 -1.096474492514E+00  8.314502171080E-01
 O   3.811773985806E+00  2.194287252143E+00  8.319736170590E-01
 O   7.623220288710E+00 -4.385553192092E+00  8.391942596770E-01
 O  -1.886981585509E+00 -1.151277010689E+00  8.970846623340E-01
 O  -3.856070266359E+00  2.189443029145E+00  9.311693261660E-01
 O  -1.009162905900E-02 -4.372381717055E+00  8.576271108810E-01
 CE  1.207873357200E-02 -6.850179683000E-03  5.594058451500E-02
 CE -1.907573789284E+00  3.305946195426E+00  6.549317416800E-02
 CE  1.907346271651E+00 -3.296574420511E+00  4.352703029200E-02
 CE  3.815226894065E+00 -6.257879780000E-04  2.669722459600E-02
 CE  1.921030713310E+00  3.303511818394E+00  5.553519658700E-02
 CE  5.708934940427E+00 -3.298570414949E+00  2.320328206600E-02
 CE -3.820012621071E+00 -1.634196995000E-02  6.102417514300E-02
 CE -5.736672381331E+00  3.291623870649E+00  7.134188052900E-02
 CE -1.915547207034E+00 -3.305602239062E+00  5.115969472300E-02
 O  -1.911763033838E+00  1.096221297191E+00 -7.285781061530E-01
 O  -3.826348182219E+00  4.375018220777E+00 -7.552112346400E-01
 O  -8.905297157000E-03 -2.197941254396E+00 -7.755197240000E-01
 O   1.901189507050E+00  1.101903903708E+00 -7.727669534310E-01
 O   1.405340866000E-03  4.390660674910E+00 -7.691320446360E-01
 O   3.810734028336E+00 -2.199309344518E+00 -7.820060124760E-01
 O  -5.714888782002E+00  1.098289755966E+00 -7.627553845830E-01
 O  -7.630048605875E+00  4.391455201762E+00 -7.583046823610E-01
 O  -3.809130779018E+00 -2.201140081472E+00 -7.677260017020E-01
 O   0.000000000000E+00  0.000000000000E+00 -2.343480358560E+00
 O  -1.905078823946E+00  3.297036022887E+00 -2.343480358560E+00
 O   1.905078823951E+00 -3.297036022882E+00 -2.343480358560E+00
 O   3.819551691110E+00  5.418490357000E-03 -2.343480358560E+00
 O   1.914472867161E+00  3.302454513249E+00 -2.343480358560E+00
 O   5.724630515070E+00 -3.291617532525E+00 -2.343480358560E+00
 O  -3.819551691110E+00 -5.418490366000E-03 -2.343480358560E+00
 O  -5.724630515070E+00  3.291617532525E+00 -2.343480358560E+00
 O  -1.914472867167E+00 -3.302454513244E+00 -2.343480358560E+00
 CE -1.908210171686E+00  1.097205844175E+00 -3.124640478080E+00
 CE -3.813288995626E+00  4.394241867066E+00 -3.124640478080E+00
 CE -3.131347737000E-03 -2.199830178710E+00 -3.124640478080E+00
 CE  1.911341519423E+00  1.102624334536E+00 -3.124640478080E+00
 CE  6.262695476000E-03  4.399660357424E+00 -3.124640478080E+00
 CE  3.816420343376E+00 -2.194411688353E+00 -3.124640478080E+00
 CE -5.727761862840E+00  1.091787353799E+00 -3.124640478080E+00
 CE -7.632840686744E+00  4.388823376707E+00 -3.124640478080E+00
 CE -3.822683038851E+00 -2.205248669075E+00 -3.124640478080E+00
 O   1.908210171686E+00 -1.097205844175E+00 -3.905800597599E+00
 O   3.131347737000E-03  2.199830178710E+00 -3.905800597599E+00
 O   3.813288995626E+00 -4.394241867066E+00 -3.905800597599E+00
 O   5.727761862840E+00 -1.091787353799E+00 -3.905800597599E+00
 O   3.822683038855E+00  2.205248669075E+00 -3.905800597599E+00
 O   7.632840686744E+00 -4.388823376707E+00 -3.905800597599E+00
 O  -1.911341519423E+00 -1.102624334536E+00 -3.905800597599E+00
 O  -3.816420343378E+00  2.194411688352E+00 -3.905800597599E+00
 O  -6.262695477000E-03 -4.399660357424E+00 -3.905800597599E+00
 O   1.491966926663E+00  4.496279479518E+00  6.143484241998E+00
 H   7.279893702510E-01  4.421837801636E+00  5.451061091791E+00
 H   7.011185074821E+00 -4.595863206506E+00  6.675630246732E+00
 O   3.839629803671E+00  3.221067206742E+00  5.664634976114E+00
 H   4.247213503569E+00  2.508117785522E+00  6.258080515947E+00
 H   2.981040944644E+00  3.567371182669E+00  6.021971655201E+00
 H  -1.781936464644E+00 -1.766457861342E+00  6.393750140766E+00
 O  -2.409312914041E+00 -1.202321110033E+00  5.916494402832E+00
 H  -3.148811904773E+00 -1.775317111369E+00  5.513016086643E+00
 H  -4.823238145792E+00  4.663698534144E+00  5.644410091630E+00
 O   3.678153794500E-02 -4.770835976660E+00  5.852520461829E+00
 H  -6.357498727018E+00  4.412196613335E+00  5.972762515222E+00
 O   1.816766510887E+00 -1.643993046057E+00  5.937974196851E+00
 H   9.378510799440E-01 -2.039066109064E+00  5.755596726201E+00
 H   2.438799732638E+00 -2.388289739824E+00  6.083068420750E+00
 O   6.082598584775E+00 -2.888027259217E+00  6.678418536576E+00
 H   6.520456797494E+00 -2.593559051483E+00  5.810003859240E+00
 H   6.022937920680E+00 -2.104544979656E+00  7.248072577174E+00
 H   4.497752887950E+00 -3.590079321014E+00  6.327115179118E+00
 O   3.636539313528E+00 -4.002776993412E+00  6.050132740870E+00
 H   3.512534383905E+00 -4.813839715537E+00  6.568737465251E+00
 O   2.299021059180E-01  1.865541004832E+00  6.003717409790E+00
 H   9.929777317840E-01  1.303789340004E+00  5.723426773119E+00
 H   6.234765677800E-01  2.646523390667E+00  6.437511787949E+00
 O   5.324886328532E+00  1.329166746766E+00  6.738940375422E+00
 H  -5.876166787652E+00  1.110253899381E+00  5.777126337581E+00
 H  -5.325628422043E+00  1.705151173960E+00  7.116631025372E+00
 O   2.540165841951E+00  1.154248724972E+01  6.388200125154E+00
 H   2.517398214952E+00  1.057055474024E+01  6.471650617237E+00
 H   3.428604030797E+00  1.165106624234E+01  5.996068536734E+00
