  110
Ceria bulk                              
 O  -1.839162899044E+00  1.134021992816E+00  3.883912210009E+00
 O  -3.658241134009E+00  4.248383398012E+00  4.121204064825E+00
 O  -9.173981332500E-02 -2.035115935424E+00  4.093801574506E+00
 O   1.963820106838E+00  1.048710488930E+00  4.061760446964E+00
 O  -8.843018619700E-02  4.317913741399E+00  4.114010048576E+00
 O   3.855305716750E+00 -2.109310798329E+00  3.976479090473E+00
 O  -5.725174814699E+00  1.018905116659E+00  4.107915171926E+00
 O  -3.992764634771E+00 -2.188558559477E+00  4.348248594012E+00
 CE  1.899773912535E+00 -1.088288153021E+00  3.284234715381E+00
 CE -1.101542930000E-04  2.183908242585E+00  3.215527684254E+00
 CE  3.754798345437E+00 -4.349323140541E+00  3.265900639114E+00
 CE  5.627971513819E+00 -1.091643075025E+00  3.184790192992E+00
 CE  3.760297120984E+00  2.052785030231E+00  3.124854807145E+00
 CE  7.452596616834E+00 -4.292362590571E+00  3.180680316318E+00
 CE -1.836445693675E+00 -1.044170133641E+00  3.226350388399E+00
 CE -3.763646663880E+00  2.178185429330E+00  3.246019224185E+00
 CE  2.422762061800E-02 -4.293497593964E+00  3.299036504709E+00
 O   4.668975774100E-02  1.616120304300E-02  2.397924533783E+00
 O  -1.877425307761E+00  3.300452586789E+00  2.378475768910E+00
 O   1.894364641045E+00 -3.248015088590E+00  2.496625592210E+00
 O   3.760689260509E+00 -3.544611058000E-03  2.344152021864E+00
 O   1.980402099653E+00  3.274263431644E+00  2.482550168530E+00
 O   5.631618560349E+00 -3.262368607146E+00  2.369433770522E+00
 O  -3.783626406715E+00 -4.809182884100E-02  2.447047849869E+00
 O  -5.762167178155E+00  3.255666708023E+00  2.511843850093E+00
 O  -1.942062276871E+00 -3.265441730618E+00  2.510381578878E+00
 O   1.882516694981E+00 -1.108202777309E+00  8.398335724420E-01
 O   3.084425397000E-02  2.202815432095E+00  8.695665451370E-01
 O   3.739242297275E+00 -4.343045308035E+00  8.461371087810E-01
 O   5.661857984322E+00 -1.074355551399E+00  8.243552662360E-01
 O   3.773961289187E+00  2.163894083474E+00  8.206024576300E-01
 O   7.535461156945E+00 -4.355571137807E+00  8.088116653460E-01
 O  -1.871533433493E+00 -1.090696853321E+00  8.767956723820E-01
 O  -3.805047360393E+00  2.179884540509E+00  9.089440058170E-01
 O  -3.322109080000E-03 -4.349795274284E+00  8.629612319870E-01
 CE  1.054085290600E-02 -9.836439970000E-04  4.021376618800E-02
 CE -1.888917150780E+00  3.279786291744E+00  4.782673066800E-02
 CE  1.874358276368E+00 -3.266436122445E+00  4.988030127100E-02
 CE  3.767279457094E+00 -1.383978555600E-02 -5.206875682000E-03
 CE  1.890985652506E+00  3.280353513249E+00  2.789105338600E-02
 CE  5.647117200943E+00 -3.264999009076E+00  1.761140645100E-02
 CE -3.773794058955E+00 -3.803429781000E-03  3.960545148200E-02
 CE -5.660689672870E+00  3.275210487107E+00  5.269379821900E-02
 CE -1.887663402479E+00 -3.270891852543E+00  5.639426174400E-02
 O  -1.891553968533E+00  1.096322336301E+00 -7.536782540630E-01
 O  -3.778756598134E+00  4.342976656349E+00 -7.680096283860E-01
 O  -1.218043993100E-02 -2.176408943972E+00 -7.735558862510E-01
 O   1.880582405921E+00  1.090266807183E+00 -7.835919468540E-01
 O  -8.295284316000E-03  4.352046442464E+00 -7.794424185550E-01
 O   3.763152607889E+00 -2.175537711616E+00 -7.924200239690E-01
 O  -5.648402136140E+00  1.091630884447E+00 -7.796661600230E-01
 O  -7.532825660330E+00  4.349827209657E+00 -7.688514151320E-01
 O  -3.761925794311E+00 -2.169585442136E+00 -7.712490580200E-01
 O   0.000000000000E+00  0.000000000000E+00 -2.343480358560E+00
 O  -1.882634382844E+00  3.267264305840E+00 -2.343480358560E+00
 O   1.882634382849E+00 -3.267264305835E+00 -2.343480358560E+00
 O   3.773148768576E+00  4.569759663000E-03 -2.343480358560E+00
 O   1.890514385730E+00  3.271834065510E+00 -2.343480358560E+00
 O   5.655783151436E+00 -3.262694546173E+00 -2.343480358560E+00
 O  -3.773148768577E+00 -4.569759672000E-03 -2.343480358560E+00
 O  -5.655783151436E+00  3.262694546173E+00 -2.343480358560E+00
 O  -1.890514385736E+00 -3.271834065505E+00 -2.343480358560E+00
 CE -1.885261050475E+00  1.087564848725E+00 -3.124640478080E+00
 CE -3.767895433311E+00  4.354829154568E+00 -3.124640478080E+00
 CE -2.626667626000E-03 -2.179699457115E+00 -3.124640478080E+00
 CE  1.887887718104E+00  1.092134608393E+00 -3.124640478080E+00
 CE  5.253335259000E-03  4.359398914235E+00 -3.124640478080E+00
 CE  3.770522100952E+00 -2.175129697451E+00 -3.124640478080E+00
 CE -5.658409819096E+00  1.082995089043E+00 -3.124640478080E+00
 CE -7.541044201896E+00  4.350259394904E+00 -3.124640478080E+00
 CE -3.775775436209E+00 -2.184269216786E+00 -3.124640478080E+00
 O   1.885261050475E+00 -1.087564848725E+00 -3.905800597599E+00
 O   2.626667626000E-03  2.179699457115E+00 -3.905800597599E+00
 O   3.767895433311E+00 -4.354829154568E+00 -3.905800597599E+00
 O   5.658409819096E+00 -1.082995089043E+00 -3.905800597599E+00
 O   3.775775436212E+00  2.184269216786E+00 -3.905800597599E+00
 O   7.541044201896E+00 -4.350259394904E+00 -3.905800597599E+00
 O  -1.887887718104E+00 -1.092134608393E+00 -3.905800597599E+00
 O  -3.770522100954E+00  2.175129697450E+00 -3.905800597599E+00
 O  -5.253335260000E-03 -4.359398914235E+00 -3.905800597599E+00
 O   1.502828062008E+00  4.480218892417E+00  6.013413534036E+00
 H   7.130573903070E-01  4.389170220009E+00  5.308265620268E+00
 H   6.952441368944E+00 -4.500311335478E+00  6.515665807322E+00
 O   3.822828119251E+00  4.012320164173E+00  4.904075883733E+00
 H   4.483202312609E+00  3.540919310323E+00  5.517279205159E+00
 H   2.988222993360E+00  4.168660923116E+00  5.456407255299E+00
 H  -1.860641447267E+00 -1.363387471446E+00  6.399392622505E+00
 O  -2.537290039289E+00 -8.757579267180E-01  5.907548278622E+00
 H  -3.184118365532E+00 -1.525653105942E+00  5.431610116495E+00
 H  -4.308735775535E+00  4.812662324750E+00  5.502389181666E+00
 O   6.663167064840E-01 -4.423601466688E+00  6.003650173951E+00
 H  -5.468564920742E+00  4.778924909739E+00  6.587807871391E+00
 O   1.862504956904E+00 -1.618423547331E+00  5.851616474837E+00
 H   9.960403312150E-01 -2.069113880298E+00  5.777605421583E+00
 H   2.521243507583E+00 -2.336593561105E+00  5.976808991126E+00
 O   6.105491155969E+00 -2.844345196187E+00  6.525123611611E+00
 H   6.571076701021E+00 -2.544375818578E+00  5.650387312309E+00
 H   6.135810687234E+00 -2.094596723473E+00  7.137943267726E+00
 H   4.561122310991E+00 -3.484207460143E+00  6.192718444183E+00
 O   3.687204623449E+00 -3.899813084928E+00  5.951323591629E+00
 H   3.550642431715E+00 -4.667389011442E+00  6.526353281909E+00
 O   2.833254088050E-01  1.893559107959E+00  5.931928667140E+00
 H   1.041229073140E+00  1.330222662093E+00  5.636088395421E+00
 H   7.047659549340E-01  2.694508776101E+00  6.303706709178E+00
 O   5.409834748779E+00  2.447397625776E+00  6.293479572150E+00
 H  -5.877109628978E+00  1.741769766068E+00  5.550483761831E+00
 H  -4.958002567745E+00  2.496548416712E+00  6.521535909148E+00
 O   2.473936063607E+00  1.164201389870E+01  6.111363354377E+00
 H   2.614400646887E+00  1.066212022533E+01  6.141741132691E+00
 H   3.376822334635E+00  1.194994335418E+01  5.908628488688E+00
  110
Ceria bulk                              
 O  -1.839162899044E+00  1.134021992815E+00  3.883912210009E+00
 O  -3.658241134009E+00  4.248383398011E+00  4.121204064825E+00
 O  -9.173981332455E-02 -2.035115935424E+00  4.093801574506E+00
 O   1.963820106838E+00  1.048710488930E+00  4.061760446964E+00
 O  -8.843018619678E-02  4.317913741399E+00  4.114010048576E+00
 O   3.855305716750E+00 -2.109310798329E+00  3.976479090473E+00
 O  -5.725174814699E+00  1.018905116659E+00  4.107915171926E+00
 O  -3.992764634771E+00 -2.188558559477E+00  4.348248594012E+00
 CE  1.899773912535E+00 -1.088288153021E+00  3.284234715381E+00
 CE -1.101542925267E-04  2.183908242585E+00  3.215527684254E+00
 CE  3.754798345437E+00 -4.349323140541E+00  3.265900639114E+00
 CE  5.627971513818E+00 -1.091643075025E+00  3.184790192992E+00
 CE  3.760297120984E+00  2.052785030231E+00  3.124854807145E+00
 CE  7.452596616834E+00 -4.292362590571E+00  3.180680316318E+00
 CE -1.836445693675E+00 -1.044170133641E+00  3.226350388399E+00
 CE -3.763646663880E+00  2.178185429330E+00  3.246019224185E+00
 CE  2.422762061849E-02 -4.293497593964E+00  3.299036504709E+00
 O   4.668975774149E-02  1.616120304314E-02  2.397924533783E+00
 O  -1.877425307761E+00  3.300452586789E+00  2.378475768910E+00
 O   1.894364641045E+00 -3.248015088590E+00  2.496625592210E+00
 O   3.760689260509E+00 -3.544611057577E-03  2.344152021864E+00
 O   1.980402099653E+00  3.274263431644E+00  2.482550168530E+00
 O   5.631618560349E+00 -3.262368607146E+00  2.369433770522E+00
 O  -3.783626406715E+00 -4.809182884078E-02  2.447047849869E+00
 O  -5.762167178155E+00  3.255666708023E+00  2.511843850093E+00
 O  -1.942062276871E+00 -3.265441730618E+00  2.510381578878E+00
 O   1.882516694981E+00 -1.108202777309E+00  8.398335724417E-01
 O   3.084425397002E-02  2.202815432095E+00  8.695665451373E-01
 O   3.739242297275E+00 -4.343045308035E+00  8.461371087806E-01
 O   5.661857984322E+00 -1.074355551399E+00  8.243552662365E-01
 O   3.773961289187E+00  2.163894083474E+00  8.206024576299E-01
 O   7.535461156945E+00 -4.355571137807E+00  8.088116653458E-01
 O  -1.871533433493E+00 -1.090696853321E+00  8.767956723820E-01
 O  -3.805047360393E+00  2.179884540509E+00  9.089440058172E-01
 O  -3.322109080428E-03 -4.349795274284E+00  8.629612319873E-01
 CE  1.054085290592E-02 -9.836439972680E-04  4.021376618778E-02
 CE -1.888917150780E+00  3.279786291744E+00  4.782673066847E-02
 CE  1.874358276368E+00 -3.266436122445E+00  4.988030127103E-02
 CE  3.767279457094E+00 -1.383978555615E-02 -5.206875682376E-03
 CE  1.890985652506E+00  3.280353513249E+00  2.789105338639E-02
 CE  5.647117200942E+00 -3.264999009076E+00  1.761140645128E-02
 CE -3.773794058955E+00 -3.803429780754E-03  3.960545148196E-02
 CE -5.660689672870E+00  3.275210487107E+00  5.269379821921E-02
 CE -1.887663402479E+00 -3.270891852543E+00  5.639426174421E-02
 O  -1.891553968533E+00  1.096322336301E+00 -7.536782540632E-01
 O  -3.778756598134E+00  4.342976656349E+00 -7.680096283863E-01
 O  -1.218043993089E-02 -2.176408943972E+00 -7.735558862514E-01
 O   1.880582405921E+00  1.090266807183E+00 -7.835919468542E-01
 O  -8.295284316112E-03  4.352046442464E+00 -7.794424185553E-01
 O   3.763152607889E+00 -2.175537711616E+00 -7.924200239691E-01
 O  -5.648402136140E+00  1.091630884447E+00 -7.796661600228E-01
 O  -7.532825660330E+00  4.349827209657E+00 -7.688514151323E-01
 O  -3.761925794311E+00 -2.169585442136E+00 -7.712490580197E-01
 O   0.000000000000E+00  0.000000000000E+00 -2.343480358560E+00
 O  -1.882634382844E+00  3.267264305840E+00 -2.343480358560E+00
 O   1.882634382849E+00 -3.267264305835E+00 -2.343480358560E+00
 O   3.773148768576E+00  4.569759662944E-03 -2.343480358560E+00
 O   1.890514385730E+00  3.271834065510E+00 -2.343480358560E+00
 O   5.655783151436E+00 -3.262694546173E+00 -2.343480358560E+00
 O  -3.773148768577E+00 -4.569759671946E-03 -2.343480358560E+00
 O  -5.655783151436E+00  3.262694546173E+00 -2.343480358560E+00
 O  -1.890514385736E+00 -3.271834065505E+00 -2.343480358560E+00
 CE -1.885261050475E+00  1.087564848725E+00 -3.124640478080E+00
 CE -3.767895433311E+00  4.354829154568E+00 -3.124640478080E+00
 CE -2.626667626012E-03 -2.179699457115E+00 -3.124640478080E+00
 CE  1.887887718104E+00  1.092134608393E+00 -3.124640478080E+00
 CE  5.253335259017E-03  4.359398914235E+00 -3.124640478080E+00
 CE  3.770522100952E+00 -2.175129697451E+00 -3.124640478080E+00
 CE -5.658409819096E+00  1.082995089043E+00 -3.124640478080E+00
 CE -7.541044201896E+00  4.350259394904E+00 -3.124640478080E+00
 CE -3.775775436209E+00 -2.184269216786E+00 -3.124640478080E+00
 O   1.885261050475E+00 -1.087564848725E+00 -3.905800597599E+00
 O   2.626667626012E-03  2.179699457115E+00 -3.905800597599E+00
 O   3.767895433311E+00 -4.354829154568E+00 -3.905800597599E+00
 O   5.658409819096E+00 -1.082995089043E+00 -3.905800597599E+00
 O   3.775775436212E+00  2.184269216786E+00 -3.905800597599E+00
 O   7.541044201896E+00 -4.350259394904E+00 -3.905800597599E+00
 O  -1.887887718104E+00 -1.092134608393E+00 -3.905800597599E+00
 O  -3.770522100954E+00  2.175129697450E+00 -3.905800597599E+00
 O  -5.253335260017E-03 -4.359398914235E+00 -3.905800597599E+00
 O   1.502828062007E+00  4.480218892417E+00  6.013413534036E+00
 H   7.130573903067E-01  4.389170220009E+00  5.308265620267E+00
 H   6.952441368944E+00 -4.500311335478E+00  6.515665807322E+00
 O   3.822828119251E+00  4.012320164173E+00  4.904075883733E+00
 H   4.483202312609E+00  3.540919310323E+00  5.517279205159E+00
 H   2.988222993360E+00  4.168660923116E+00  5.456407255300E+00
 H  -1.860641447267E+00 -1.363387471446E+00  6.399392622505E+00
 O  -2.537290039289E+00 -8.757579267182E-01  5.907548278622E+00
 H  -3.184118365532E+00 -1.525653105942E+00  5.431610116495E+00
 H  -4.308735775536E+00  4.812662324750E+00  5.502389181667E+00
 O   6.663167064844E-01 -4.423601466688E+00  6.003650173950E+00
 H  -5.468564920742E+00  4.778924909739E+00  6.587807871391E+00
 O   1.862504956904E+00 -1.618423547331E+00  5.851616474837E+00
 H   9.960403312154E-01 -2.069113880298E+00  5.777605421583E+00
 H   2.521243507583E+00 -2.336593561106E+00  5.976808991126E+00
 O   6.105491155969E+00 -2.844345196187E+00  6.525123611611E+00
 H   6.571076701021E+00 -2.544375818578E+00  5.650387312309E+00
 H   6.135810687234E+00 -2.094596723473E+00  7.137943267726E+00
 H   4.561122310991E+00 -3.484207460143E+00  6.192718444184E+00
 O   3.687204623449E+00 -3.899813084928E+00  5.951323591629E+00
 H   3.550642431715E+00 -4.667389011442E+00  6.526353281909E+00
 O   2.833254088054E-01  1.893559107959E+00  5.931928667139E+00
 H   1.041229073140E+00  1.330222662093E+00  5.636088395421E+00
 H   7.047659549340E-01  2.694508776101E+00  6.303706709178E+00
 O   5.409834748780E+00  2.447397625776E+00  6.293479572150E+00
 H  -5.877109628978E+00  1.741769766068E+00  5.550483761831E+00
 H  -4.958002567745E+00  2.496548416712E+00  6.521535909149E+00
 O   2.473936063607E+00  1.164201389870E+01  6.111363354377E+00
 H   2.614400646887E+00  1.066212022534E+01  6.141741132691E+00
 H   3.376822334635E+00  1.194994335418E+01  5.908628488687E+00
  110
Ceria bulk                               E -1.7584445017397E+04 DE-1.9E-07(  6)
 O  -1.839162899044E+00  1.134021992815E+00  3.883912210009E+00
 O  -3.658241134009E+00  4.248383398011E+00  4.121204064825E+00
 O  -9.173981332455E-02 -2.035115935424E+00  4.093801574506E+00
 O   1.963820106838E+00  1.048710488930E+00  4.061760446964E+00
 O  -8.843018619678E-02  4.317913741399E+00  4.114010048576E+00
 O   3.855305716750E+00 -2.109310798329E+00  3.976479090473E+00
 O  -5.725174814699E+00  1.018905116659E+00  4.107915171926E+00
 O  -3.992764634771E+00 -2.188558559477E+00  4.348248594012E+00
 CE  1.899773912535E+00 -1.088288153021E+00  3.284234715381E+00
 CE -1.101542925267E-04  2.183908242585E+00  3.215527684254E+00
 CE  3.754798345437E+00 -4.349323140541E+00  3.265900639114E+00
 CE  5.627971513818E+00 -1.091643075025E+00  3.184790192992E+00
 CE  3.760297120984E+00  2.052785030231E+00  3.124854807145E+00
 CE  7.452596616834E+00 -4.292362590571E+00  3.180680316318E+00
 CE -1.836445693675E+00 -1.044170133641E+00  3.226350388399E+00
 CE -3.763646663880E+00  2.178185429330E+00  3.246019224185E+00
 CE  2.422762061849E-02 -4.293497593964E+00  3.299036504709E+00
 O   4.668975774149E-02  1.616120304314E-02  2.397924533783E+00
 O  -1.877425307761E+00  3.300452586789E+00  2.378475768910E+00
 O   1.894364641045E+00 -3.248015088590E+00  2.496625592210E+00
 O   3.760689260509E+00 -3.544611057577E-03  2.344152021864E+00
 O   1.980402099653E+00  3.274263431644E+00  2.482550168530E+00
 O   5.631618560349E+00 -3.262368607146E+00  2.369433770522E+00
 O  -3.783626406715E+00 -4.809182884078E-02  2.447047849869E+00
 O  -5.762167178155E+00  3.255666708023E+00  2.511843850093E+00
 O  -1.942062276871E+00 -3.265441730618E+00  2.510381578878E+00
 O   1.882516694981E+00 -1.108202777309E+00  8.398335724417E-01
 O   3.084425397002E-02  2.202815432095E+00  8.695665451373E-01
 O   3.739242297275E+00 -4.343045308035E+00  8.461371087806E-01
 O   5.661857984322E+00 -1.074355551399E+00  8.243552662365E-01
 O   3.773961289187E+00  2.163894083474E+00  8.206024576299E-01
 O   7.535461156945E+00 -4.355571137807E+00  8.088116653458E-01
 O  -1.871533433493E+00 -1.090696853321E+00  8.767956723820E-01
 O  -3.805047360393E+00  2.179884540509E+00  9.089440058172E-01
 O  -3.322109080428E-03 -4.349795274284E+00  8.629612319873E-01
 CE  1.054085290592E-02 -9.836439972680E-04  4.021376618778E-02
 CE -1.888917150780E+00  3.279786291744E+00  4.782673066847E-02
 CE  1.874358276368E+00 -3.266436122445E+00  4.988030127103E-02
 CE  3.767279457094E+00 -1.383978555615E-02 -5.206875682376E-03
 CE  1.890985652506E+00  3.280353513249E+00  2.789105338639E-02
 CE  5.647117200942E+00 -3.264999009076E+00  1.761140645128E-02
 CE -3.773794058955E+00 -3.803429780754E-03  3.960545148196E-02
 CE -5.660689672870E+00  3.275210487107E+00  5.269379821921E-02
 CE -1.887663402479E+00 -3.270891852543E+00  5.639426174421E-02
 O  -1.891553968533E+00  1.096322336301E+00 -7.536782540632E-01
 O  -3.778756598134E+00  4.342976656349E+00 -7.680096283863E-01
 O  -1.218043993089E-02 -2.176408943972E+00 -7.735558862514E-01
 O   1.880582405921E+00  1.090266807183E+00 -7.835919468542E-01
 O  -8.295284316112E-03  4.352046442464E+00 -7.794424185553E-01
 O   3.763152607889E+00 -2.175537711616E+00 -7.924200239691E-01
 O  -5.648402136140E+00  1.091630884447E+00 -7.796661600228E-01
 O  -7.532825660330E+00  4.349827209657E+00 -7.688514151323E-01
 O  -3.761925794311E+00 -2.169585442136E+00 -7.712490580197E-01
 O   0.000000000000E+00  0.000000000000E+00 -2.343480358560E+00
 O  -1.882634382844E+00  3.267264305840E+00 -2.343480358560E+00
 O   1.882634382849E+00 -3.267264305835E+00 -2.343480358560E+00
 O   3.773148768576E+00  4.569759662944E-03 -2.343480358560E+00
 O   1.890514385730E+00  3.271834065510E+00 -2.343480358560E+00
 O   5.655783151436E+00 -3.262694546173E+00 -2.343480358560E+00
 O  -3.773148768577E+00 -4.569759671946E-03 -2.343480358560E+00
 O  -5.655783151436E+00  3.262694546173E+00 -2.343480358560E+00
 O  -1.890514385736E+00 -3.271834065505E+00 -2.343480358560E+00
 CE -1.885261050475E+00  1.087564848725E+00 -3.124640478080E+00
 CE -3.767895433311E+00  4.354829154568E+00 -3.124640478080E+00
 CE -2.626667626012E-03 -2.179699457115E+00 -3.124640478080E+00
 CE  1.887887718104E+00  1.092134608393E+00 -3.124640478080E+00
 CE  5.253335259017E-03  4.359398914235E+00 -3.124640478080E+00
 CE  3.770522100952E+00 -2.175129697451E+00 -3.124640478080E+00
 CE -5.658409819096E+00  1.082995089043E+00 -3.124640478080E+00
 CE -7.541044201896E+00  4.350259394904E+00 -3.124640478080E+00
 CE -3.775775436209E+00 -2.184269216786E+00 -3.124640478080E+00
 O   1.885261050475E+00 -1.087564848725E+00 -3.905800597599E+00
 O   2.626667626012E-03  2.179699457115E+00 -3.905800597599E+00
 O   3.767895433311E+00 -4.354829154568E+00 -3.905800597599E+00
 O   5.658409819096E+00 -1.082995089043E+00 -3.905800597599E+00
 O   3.775775436212E+00  2.184269216786E+00 -3.905800597599E+00
 O   7.541044201896E+00 -4.350259394904E+00 -3.905800597599E+00
 O  -1.887887718104E+00 -1.092134608393E+00 -3.905800597599E+00
 O  -3.770522100954E+00  2.175129697450E+00 -3.905800597599E+00
 O  -5.253335260017E-03 -4.359398914235E+00 -3.905800597599E+00
 O   1.502828062007E+00  4.480218892417E+00  6.013413534036E+00
 H   7.130573903067E-01  4.389170220009E+00  5.308265620267E+00
 H   6.952441368944E+00 -4.500311335478E+00  6.515665807322E+00
 O   3.822828119251E+00  4.012320164173E+00  4.904075883733E+00
 H   4.483202312609E+00  3.540919310323E+00  5.517279205159E+00
 H   2.988222993360E+00  4.168660923116E+00  5.456407255300E+00
 H  -1.860641447267E+00 -1.363387471446E+00  6.399392622505E+00
 O  -2.537290039289E+00 -8.757579267182E-01  5.907548278622E+00
 H  -3.184118365532E+00 -1.525653105942E+00  5.431610116495E+00
 H  -4.308735775536E+00  4.812662324750E+00  5.502389181667E+00
 O   6.663167064844E-01 -4.423601466688E+00  6.003650173950E+00
 H  -5.468564920742E+00  4.778924909739E+00  6.587807871391E+00
 O   1.862504956904E+00 -1.618423547331E+00  5.851616474837E+00
 H   9.960403312154E-01 -2.069113880298E+00  5.777605421583E+00
 H   2.521243507583E+00 -2.336593561106E+00  5.976808991126E+00
 O   6.105491155969E+00 -2.844345196187E+00  6.525123611611E+00
 H   6.571076701021E+00 -2.544375818578E+00  5.650387312309E+00
 H   6.135810687234E+00 -2.094596723473E+00  7.137943267726E+00
 H   4.561122310991E+00 -3.484207460143E+00  6.192718444184E+00
 O   3.687204623449E+00 -3.899813084928E+00  5.951323591629E+00
 H   3.550642431715E+00 -4.667389011442E+00  6.526353281909E+00
 O   2.833254088054E-01  1.893559107959E+00  5.931928667139E+00
 H   1.041229073140E+00  1.330222662093E+00  5.636088395421E+00
 H   7.047659549340E-01  2.694508776101E+00  6.303706709178E+00
 O   5.409834748780E+00  2.447397625776E+00  6.293479572150E+00
 H  -5.877109628978E+00  1.741769766068E+00  5.550483761831E+00
 H  -4.958002567745E+00  2.496548416712E+00  6.521535909149E+00
 O   2.473936063607E+00  1.164201389870E+01  6.111363354377E+00
 H   2.614400646887E+00  1.066212022534E+01  6.141741132691E+00
 H   3.376822334635E+00  1.194994335418E+01  5.908628488687E+00
