  110
Ceria bulk                              
 O  -1.856060938027E+00  1.149879930557E+00  3.929098346470E+00
 O  -3.703734579731E+00  4.259191605836E+00  4.148974244044E+00
 O  -4.569985443400E-02 -2.045160986960E+00  4.100294266604E+00
 O   1.965133937971E+00  1.030195932398E+00  4.084140785582E+00
 O  -1.189634203690E-01  4.361558292440E+00  4.162085513942E+00
 O   3.867255904464E+00 -2.142254407134E+00  4.007181254652E+00
 O  -5.787441715521E+00  9.940982253870E-01  4.135980204667E+00
 O  -4.217410953604E+00 -2.265057904637E+00  4.480651832789E+00
 CE  1.929758232249E+00 -1.095596953462E+00  3.312084381962E+00
 CE  4.844340000022E-05  2.209592056164E+00  3.273425304116E+00
 CE  3.777653045800E+00 -4.412419960280E+00  3.312788003536E+00
 CE  5.674492790453E+00 -1.117014098354E+00  3.230991665789E+00
 CE  3.809005176769E+00  2.064826248032E+00  3.214060808315E+00
 CE  7.493600872985E+00 -4.323479851138E+00  3.255366586454E+00
 CE -1.824057449776E+00 -1.042712137758E+00  3.266442538516E+00
 CE -3.806290420173E+00  2.185101327080E+00  3.310691251383E+00
 CE  4.303416615400E-02 -4.321712448705E+00  3.292895965036E+00
 O   3.082358383500E-02  2.613829358900E-02  2.423780927669E+00
 O  -1.900351191095E+00  3.321566598268E+00  2.410085739785E+00
 O   1.918399448803E+00 -3.299823055597E+00  2.510991823263E+00
 O   3.804305963916E+00  5.040946266000E-03  2.385972851154E+00
 O   2.028300594981E+00  3.323491474477E+00  2.594528801727E+00
 O   5.675907639544E+00 -3.307584857216E+00  2.396122011226E+00
 O  -3.807953940117E+00 -8.600230134100E-02  2.510631825864E+00
 O  -5.861882713808E+00  3.293893540685E+00  2.594949692067E+00
 O  -1.990408363933E+00 -3.289563233963E+00  2.617932223276E+00
 O   1.901294116670E+00 -1.116729445306E+00  8.507276207300E-01
 O   5.473817490200E-02  2.242134506303E+00  9.024706103220E-01
 O   3.775926462345E+00 -4.398555440694E+00  8.503571790210E-01
 O   5.729388284480E+00 -1.081352892051E+00  8.422562563620E-01
 O   3.813842559456E+00  2.193956103529E+00  8.461917102000E-01
 O   7.619617144008E+00 -4.398001155028E+00  8.376115520370E-01
 O  -1.888131773146E+00 -1.118084284684E+00  8.918304224390E-01
 O  -3.871077884440E+00  2.189920174051E+00  9.538571738440E-01
 O  -2.358743827100E-02 -4.391928825649E+00  8.671775195790E-01
 CE  1.344460871800E-02  1.567668800000E-04  5.564394647100E-02
 CE -1.908680785089E+00  3.312404224303E+00  7.249767409000E-02
 CE  1.893864412066E+00 -3.301839855458E+00  5.589340296200E-02
 CE  3.810933603078E+00 -5.704543189000E-03  1.655365003300E-02
 CE  1.920353844022E+00  3.318760608512E+00  5.207967241800E-02
 CE  5.705777170454E+00 -3.300987551258E+00  3.624515536600E-02
 CE -3.820753242178E+00 -1.216578871100E-02  6.875747108700E-02
 CE -5.733374413566E+00  3.296253506310E+00  7.254097517300E-02
 CE -1.922458815571E+00 -3.307161365288E+00  6.968045729900E-02
 O  -1.914903960374E+00  1.108272734639E+00 -7.256128202510E-01
 O  -3.824703946825E+00  4.374900187032E+00 -7.499159974750E-01
 O  -1.713867562300E-02 -2.199704895456E+00 -7.649069416480E-01
 O   1.903296409947E+00  1.106969224955E+00 -7.706669516800E-01
 O   5.855387400044E-05  4.398324879889E+00 -7.654726896550E-01
 O   3.807223591823E+00 -2.194795519851E+00 -7.784686948270E-01
 O  -5.714215126080E+00  1.097123396768E+00 -7.640306466880E-01
 O  -7.621695184845E+00  4.387163594950E+00 -7.558384714820E-01
 O  -3.808703972990E+00 -2.200792341628E+00 -7.552174516700E-01
 O   0.000000000000E+00  0.000000000000E+00 -2.343480358560E+00
 O  -1.901032269511E+00  3.300559742527E+00 -2.343480358560E+00
 O   1.901032269516E+00 -3.300559742522E+00 -2.343480358560E+00
 O   3.816958907411E+00  8.617215920000E-03 -2.343480358560E+00
 O   1.915926637898E+00  3.309176958453E+00 -2.343480358560E+00
 O   5.717991176938E+00 -3.291942526602E+00 -2.343480358560E+00
 O  -3.816958907412E+00 -8.617215929000E-03 -2.343480358560E+00
 O  -5.717991176938E+00  3.291942526602E+00 -2.343480358560E+00
 O  -1.915926637904E+00 -3.309176958448E+00 -2.343480358560E+00
 CE -1.905997058976E+00  1.097314175534E+00 -3.124640478080E+00
 CE -3.807029328480E+00  4.397873918065E+00 -3.124640478080E+00
 CE -4.964789460000E-03 -2.203245566991E+00 -3.124640478080E+00
 CE  1.910961848437E+00  1.105931391460E+00 -3.124640478080E+00
 CE  9.929578926000E-03  4.406491133988E+00 -3.124640478080E+00
 CE  3.811994117953E+00 -2.194628351071E+00 -3.124640478080E+00
 CE -5.722955966431E+00  1.088696959595E+00 -3.124640478080E+00
 CE -7.623988235899E+00  4.389256702143E+00 -3.124640478080E+00
 CE -3.821923696877E+00 -2.211862782920E+00 -3.124640478080E+00
 O   1.905997058976E+00 -1.097314175534E+00 -3.905800597599E+00
 O   4.964789460000E-03  2.203245566991E+00 -3.905800597599E+00
 O   3.807029328480E+00 -4.397873918065E+00 -3.905800597599E+00
 O   5.722955966431E+00 -1.088696959595E+00 -3.905800597599E+00
 O   3.821923696881E+00  2.211862782920E+00 -3.905800597599E+00
 O   7.623988235899E+00 -4.389256702143E+00 -3.905800597599E+00
 O  -1.910961848437E+00 -1.105931391460E+00 -3.905800597599E+00
 O  -3.811994117955E+00  2.194628351070E+00 -3.905800597599E+00
 O  -9.929578927000E-03 -4.406491133988E+00 -3.905800597599E+00
 O   1.466170862426E+00  4.509120856515E+00  6.140870882674E+00
 H   6.947673855480E-01  4.427353869756E+00  5.451181283565E+00
 H   6.958824278638E+00 -4.603887783645E+00  6.685050327082E+00
 O   3.853038783156E+00  3.345918813382E+00  5.561771468801E+00
 H   4.285508719023E+00  2.652600466511E+00  6.170370725673E+00
 H   2.999918058800E+00  3.679410113685E+00  5.942851725298E+00
 H  -2.047340961530E+00 -1.468088586243E+00  6.469132092200E+00
 O  -2.603636649102E+00 -9.812416734390E-01  5.843194038191E+00
 H  -3.343533536147E+00 -1.611872004920E+00  5.415320584923E+00
 H  -4.696470674522E+00  4.652725298703E+00  5.608524480704E+00
 O   1.996804662640E-01 -4.751707301063E+00  5.914410039561E+00
 H  -6.214825759744E+00  4.484526446497E+00  6.040932945729E+00
 O   1.816443042160E+00 -1.588902424371E+00  5.946733524596E+00
 H   9.317221773140E-01 -1.980946456486E+00  5.784815790092E+00
 H   2.432855989223E+00 -2.338561482054E+00  6.097611391166E+00
 O   6.039270831501E+00 -2.905507486133E+00  6.738734533762E+00
 H   6.470244959124E+00 -2.603351274476E+00  5.858957325703E+00
 H   6.013628220022E+00 -2.132600986898E+00  7.324270728295E+00
 H   4.458119344135E+00 -3.526701298258E+00  6.363377780445E+00
 O   3.587757245104E+00 -3.923273990114E+00  6.082171350670E+00
 H   3.412474963980E+00 -4.682515199179E+00  6.658498449325E+00
 O   2.878758510340E-01  1.881348089247E+00  6.025049489629E+00
 H   1.050134044919E+00  1.313818582211E+00  5.761696912640E+00
 H   6.874656417460E-01  2.678900667683E+00  6.424744124673E+00
 O   5.259895759571E+00  1.470951115123E+00  6.723711259907E+00
 H  -5.996273059292E+00  1.140537041459E+00  5.781057653526E+00
 H  -5.312513302444E+00  1.744620631519E+00  7.027474669599E+00
 O   2.371398648087E+00  1.161759085520E+01  6.185111484497E+00
 H   2.616922826782E+00  1.065716677656E+01  6.128916316254E+00
 H   3.245982224664E+00  1.204467807333E+01  6.177740207157E+00
