  107
Ceria bulk                              
 O  -1.873251478143E+00  1.081522245166E+00  4.089120503632E+00
 O  -3.746502956278E+00  4.326088980670E+00  4.089120503632E+00
 O   1.000064297492E-12 -2.163044490331E+00  4.089120503632E+00
 O   1.873251478143E+00  1.081522245165E+00  4.089120503632E+00
 O  -2.102251894252E-16  4.326088980667E+00  4.089120503632E+00
 O   3.746502956288E+00 -2.163044490334E+00  4.089120503632E+00
 O  -5.619754434470E+00  1.081522245154E+00  4.089120503632E+00
 O  -7.493005912571E+00  4.326088980676E+00  4.089120503632E+00
 O  -3.746502956288E+00 -2.163044490334E+00  4.089120503632E+00
 CE  1.873251478143E+00 -1.081522245166E+00  3.249093930743E+00
 CE -1.000064297492E-12  2.163044490331E+00  3.249093930743E+00
 CE  3.746502956278E+00 -4.326088980670E+00  3.249093930743E+00
 CE  5.619754434470E+00 -1.081522245154E+00  3.249093930743E+00
 CE  3.746502956291E+00  2.163044490334E+00  3.249093930743E+00
 CE  7.493005912571E+00 -4.326088980676E+00  3.249093930743E+00
 CE -1.873251478143E+00 -1.081522245165E+00  3.249093930743E+00
 CE -3.746502956290E+00  2.163044490333E+00  3.249093930743E+00
 CE -9.999578114350E-13 -4.326088980667E+00  3.249093930743E+00
 O   0.000000000000E+00  0.000000000000E+00  2.429312747361E+00
 O  -1.873251478140E+00  3.244566735500E+00  2.429312747361E+00
 O   1.873251478146E+00 -3.244566735495E+00  2.429312747361E+00
 O   3.746502956286E+00 -5.000000000000E-12  2.429312747361E+00
 O   1.873251478140E+00  3.244566735500E+00  2.429312747361E+00
 O   5.619754434440E+00 -3.244566735500E+00  2.429312747361E+00
 O  -3.746502956286E+00 -5.000000000000E-12  2.429312747361E+00
 O  -5.619754434440E+00  3.244566735500E+00  2.429312747361E+00
 O  -1.873251478146E+00 -3.244566735495E+00  2.429312747361E+00
 O   1.873251478143E+00 -1.081522245166E+00  8.802254172520E-01
 O  -1.000064297492E-12  2.163044490331E+00  8.802254172520E-01
 O   3.746502956278E+00 -4.326088980670E+00  8.802254172520E-01
 O   5.619754434470E+00 -1.081522245154E+00  8.802254172520E-01
 O   3.746502956291E+00  2.163044490334E+00  8.802254172520E-01
 O   7.493005912571E+00 -4.326088980676E+00  8.802254172520E-01
 O  -1.873251478143E+00 -1.081522245165E+00  8.802254172520E-01
 O  -3.746502956290E+00  2.163044490333E+00  8.802254172520E-01
 O  -9.999578114350E-13 -4.326088980667E+00  8.802254172520E-01
 CE  0.000000000000E+00  0.000000000000E+00  5.290624511600E-02
 CE -1.873251478140E+00  3.244566735500E+00  5.290624511600E-02
 CE  1.873251478146E+00 -3.244566735495E+00  5.290624511600E-02
 CE  3.746502956286E+00 -5.000000000000E-12  5.290624511600E-02
 CE  1.873251478140E+00  3.244566735500E+00  5.290624511600E-02
 CE  5.619754434440E+00 -3.244566735500E+00  5.290624511600E-02
 CE -3.746502956286E+00 -5.000000000000E-12  5.290624511600E-02
 CE -5.619754434440E+00  3.244566735500E+00  5.290624511600E-02
 CE -1.873251478146E+00 -3.244566735495E+00  5.290624511600E-02
 O  -1.873251478143E+00  1.081522245166E+00 -7.648587718060E-01
 O  -3.746502956278E+00  4.326088980670E+00 -7.648587718060E-01
 O   1.000064297492E-12 -2.163044490331E+00 -7.648587718060E-01
 O   1.873251478143E+00  1.081522245165E+00 -7.648587718060E-01
 O  -2.102251894252E-16  4.326088980667E+00 -7.648587718060E-01
 O   3.746502956288E+00 -2.163044490334E+00 -7.648587718060E-01
 O  -5.619754434470E+00  1.081522245154E+00 -7.648587718060E-01
 O  -7.493005912571E+00  4.326088980676E+00 -7.648587718060E-01
 O  -3.746502956288E+00 -2.163044490334E+00 -7.648587718060E-01
 O   0.000000000000E+00  0.000000000000E+00 -2.343480358560E+00
 O  -1.873251478140E+00  3.244566735500E+00 -2.343480358560E+00
 O   1.873251478146E+00 -3.244566735495E+00 -2.343480358560E+00
 O   3.746502956286E+00 -5.000000000000E-12 -2.343480358560E+00
 O   1.873251478140E+00  3.244566735500E+00 -2.343480358560E+00
 O   5.619754434440E+00 -3.244566735500E+00 -2.343480358560E+00
 O  -3.746502956286E+00 -5.000000000000E-12 -2.343480358560E+00
 O  -5.619754434440E+00  3.244566735500E+00 -2.343480358560E+00
 O  -1.873251478146E+00 -3.244566735495E+00 -2.343480358560E+00
 CE -1.873251478143E+00  1.081522245166E+00 -3.124640478080E+00
 CE -3.746502956278E+00  4.326088980670E+00 -3.124640478080E+00
 CE  1.000064297492E-12 -2.163044490331E+00 -3.124640478080E+00
 CE  1.873251478143E+00  1.081522245165E+00 -3.124640478080E+00
 CE -2.102251894252E-16  4.326088980667E+00 -3.124640478080E+00
 CE  3.746502956288E+00 -2.163044490333E+00 -3.124640478080E+00
 CE -5.619754434470E+00  1.081522245154E+00 -3.124640478080E+00
 CE -7.493005912571E+00  4.326088980676E+00 -3.124640478080E+00
 CE -3.746502956288E+00 -2.163044490333E+00 -3.124640478080E+00
 O   1.873251478143E+00 -1.081522245166E+00 -3.905800597599E+00
 O  -1.000064297492E-12  2.163044490331E+00 -3.905800597599E+00
 O   3.746502956278E+00 -4.326088980670E+00 -3.905800597599E+00
 O   5.619754434470E+00 -1.081522245154E+00 -3.905800597599E+00
 O   3.746502956291E+00  2.163044490334E+00 -3.905800597599E+00
 O   7.493005912571E+00 -4.326088980676E+00 -3.905800597599E+00
 O  -1.873251478143E+00 -1.081522245165E+00 -3.905800597599E+00
 O  -3.746502956290E+00  2.163044490333E+00 -3.905800597599E+00
 O  -9.999578114350E-13 -4.326088980667E+00 -3.905800597599E+00
 O   4.063082456100E+00 -2.306886948940E+00  7.290000000000E+00
 H   4.282252879041E+00 -3.251055868971E+00  7.030000000000E+00
 O   2.630045075331E+00  2.686501256994E+00  6.320000000000E+00
 H   2.360296862480E+00  3.640403877231E+00  6.170000000000E+00
 H   2.169225211704E+00  2.141414045430E+00  5.640000000000E+00
 O   5.102737026466E+00 -4.730578300359E+00  6.720000000000E+00
 H   3.310035361885E+00 -1.995408542332E+00  6.740000000000E+00
 H  -7.024693042930E-01  4.448300994370E+00  5.940000000000E+00
 O  -5.861403875124E+00  2.345821749766E+00  6.600000000000E+00
 H  -5.664712469920E+00  1.713131236344E+00  5.870000000000E+00
 H  -6.856100410022E+00  2.394490250799E+00  6.630000000000E+00
 H  -3.113343956697E+00 -3.737740879296E+00  6.160000000000E+00
 O   7.564189468756E+00 -4.419099893751E+00  5.760000000000E+00
 H   6.052475525889E+00 -4.506703195610E+00  6.510000000000E+00
 O  -3.652840382460E-01 -2.112212944811E+00  6.710000000000E+00
 H  -3.652840382460E-01 -2.112212944811E+00  5.700000000000E+00
 H  -2.585087039940E-01 -3.075849265254E+00  6.870000000000E+00
 O   5.923221173907E+00 -1.168044024780E+00  5.850000000000E+00
 H   5.226371624034E+00 -1.596326833866E+00  6.440000000000E+00
 O   1.910716507710E+00 -9.928374210630E-01  5.990000000000E+00
 H   1.887956502253E+00 -1.898071540300E-02  6.060000000000E+00
 H   1.082364704071E+00 -1.362718028910E+00  6.430000000000E+00
 H  -4.546381337475E+00 -1.761799737376E+00  5.780000000000E+00
 H  -6.872959673318E+00  4.779246801391E+00  5.690000000000E+00
 O  -3.371852660820E-01 -4.769513101185E+00  5.970000000000E+00
 H  -5.642233452175E+00  4.049219285904E+00  6.220000000000E+00
