  110
Ceria bulk                              
 O  -1.889441024783E+00  1.087435086117E+00  4.099355163898E+00
 O  -3.638194221229E+00  4.332087341243E+00  4.084024574279E+00
 O  -5.646525850200E-02 -2.089596325019E+00  4.190532494878E+00
 O   1.720474899602E+00  1.024584690123E+00  4.227053038973E+00
 O  -1.218485051460E-01  4.366482657404E+00  4.165136735803E+00
 O   3.830227592353E+00 -2.253981424300E+00  4.103577034540E+00
 O  -5.580672912316E+00  1.084153116376E+00  4.160509513791E+00
 O  -7.626596180890E+00  4.388261109353E+00  4.089120503632E+00
 O  -3.767019550102E+00 -2.170920327622E+00  4.164829589892E+00
 CE  1.904774799905E+00 -1.105604202998E+00  3.392701897689E+00
 CE -3.597462337800E-02  2.165981216131E+00  3.273328799541E+00
 CE  3.807926917052E+00 -4.388753722037E+00  3.258600249433E+00
 CE  5.707318726160E+00 -1.088098847097E+00  3.410506901110E+00
 CE  3.842010172382E+00  2.097328294519E+00  3.332945885645E+00
 CE  7.517646538294E+00 -4.331148736816E+00  3.303077664563E+00
 CE -1.909615960547E+00 -1.098146988647E+00  3.269579120909E+00
 CE -3.786467204083E+00  2.187721835827E+00  3.270959696199E+00
 CE  1.223791032570E-01 -4.359355345271E+00  3.315227946041E+00
 O  -1.471195790300E-02 -1.035886682300E-02  2.432783986342E+00
 O  -1.875576948057E+00  3.235680887643E+00  2.387275173394E+00
 O   1.917769118393E+00 -3.241465956772E+00  2.485304791610E+00
 O   3.801460089321E+00 -3.454789605300E-02  2.567226943041E+00
 O   1.961096730256E+00  3.383721983281E+00  2.618809385835E+00
 O   5.740640486696E+00 -3.274480945461E+00  2.486836723020E+00
 O  -3.794792448589E+00 -2.011016503500E-02  2.454017710175E+00
 O  -5.745323417337E+00  3.314429433772E+00  2.523081065277E+00
 O  -1.947608224939E+00 -3.428352917529E+00  2.564322150475E+00
 O   1.916632333448E+00 -1.069894176938E+00  8.881567381350E-01
 O   6.861457741200E-02  2.201845404853E+00  9.067337809790E-01
 O   3.829678386261E+00 -4.386504125953E+00  8.832409025360E-01
 O   5.706655249695E+00 -1.092009157532E+00  8.929461427890E-01
 O   3.791691672099E+00  2.162020217113E+00  8.815097052360E-01
 O   7.594260371245E+00 -4.385074077290E+00  8.576781487790E-01
 O  -1.906246140318E+00 -1.159402432627E+00  9.178525646090E-01
 O  -3.838263513303E+00  2.190465913081E+00  8.973825608300E-01
 O   1.048702055800E-02 -4.372715278059E+00  8.497195725620E-01
 CE  2.111518752800E-02 -1.321517707600E-02  7.962397519800E-02
 CE -1.903316410021E+00  3.285289091240E+00  6.056783856300E-02
 CE  1.906199626719E+00 -3.278593507589E+00  7.257527567300E-02
 CE  3.809165804063E+00 -9.282101769000E-03  8.892531743800E-02
 CE  1.913860018491E+00  3.285063617409E+00  8.590313994400E-02
 CE  5.714684604025E+00 -3.277591615519E+00  6.495489150600E-02
 CE -3.826435067724E+00 -8.930934536000E-03  8.784799196400E-02
 CE -5.722155445210E+00  3.291325306163E+00  9.724221742900E-02
 CE -1.901155035927E+00 -3.305429161675E+00  9.201337701700E-02
 O  -1.898715792573E+00  1.086534966658E+00 -7.384599611820E-01
 O  -3.805594254283E+00  4.360883711953E+00 -7.680894965760E-01
 O  -8.729167894000E-03 -2.177364809540E+00 -7.719195057250E-01
 O   1.902700208872E+00  1.094258578443E+00 -7.803129259770E-01
 O  -6.965512819000E-03  4.370968123484E+00 -7.771471298030E-01
 O   3.827392842295E+00 -2.189344203492E+00 -7.773176677500E-01
 O  -5.712969460029E+00  1.098582006950E+00 -7.642099539380E-01
 O  -7.631100694629E+00  4.380398665420E+00 -7.573288997590E-01
 O  -3.811342235217E+00 -2.182638750526E+00 -7.683623371230E-01
 O   0.000000000000E+00  0.000000000000E+00 -2.343480358560E+00
 O  -1.908784895693E+00  3.287511156348E+00 -2.343480358560E+00
 O   1.908784895699E+00 -3.287511156343E+00 -2.343480358560E+00
 O   3.811162239972E+00 -3.684675664000E-03 -2.343480358560E+00
 O   1.902377344272E+00  3.283826480690E+00 -2.343480358560E+00
 O   5.719947135679E+00 -3.291195832007E+00 -2.343480358560E+00
 O  -3.811162239972E+00  3.684675654000E-03 -2.343480358560E+00
 O  -5.719947135679E+00  3.291195832007E+00 -2.343480358560E+00
 O  -1.902377344279E+00 -3.283826480685E+00 -2.343480358560E+00
 CE -1.906649045223E+00  1.097065277334E+00 -3.124640478080E+00
 CE -3.815433940910E+00  4.384576433687E+00 -3.124640478080E+00
 CE  2.135850474000E-03 -2.190445879011E+00 -3.124640478080E+00
 CE  1.904513194749E+00  1.093380601676E+00 -3.124640478080E+00
 CE -4.271700946000E-03  4.380891758026E+00 -3.124640478080E+00
 CE  3.813298090447E+00 -2.194130554672E+00 -3.124640478080E+00
 CE -5.717811285235E+00  1.100749952981E+00 -3.124640478080E+00
 CE -7.626596180890E+00  4.388261109353E+00 -3.124640478080E+00
 CE -3.809026389500E+00 -2.186761203354E+00 -3.124640478080E+00
 O   1.906649045223E+00 -1.097065277334E+00 -3.905800597599E+00
 O  -2.135850474000E-03  2.190445879011E+00 -3.905800597599E+00
 O   3.815433940910E+00 -4.384576433687E+00 -3.905800597599E+00
 O   5.717811285235E+00 -1.100749952981E+00 -3.905800597599E+00
 O   3.809026389503E+00  2.186761203355E+00 -3.905800597599E+00
 O   7.626596180890E+00 -4.388261109353E+00 -3.905800597599E+00
 O  -1.904513194749E+00 -1.093380601676E+00 -3.905800597599E+00
 O  -3.813298090449E+00  2.194130554672E+00 -3.905800597599E+00
 O   4.271700945000E-03 -4.380891758026E+00 -3.905800597599E+00
 O   3.918623677874E+00  1.155933039453E+01  6.297728488024E+00
 H   4.119688492803E+00  1.059833764606E+01  6.192529811610E+00
 O   2.938430739207E+00  2.422644931176E+00  6.012321370154E+00
 H   2.631932070362E+00  3.363920164053E+00  6.026808928250E+00
 H   2.262255197866E+00  1.859994679759E+00  5.516590952354E+00
 O   5.565233047867E+00 -5.037142497130E+00  6.833670233449E+00
 H   2.963565225943E+00  1.170275173338E+01  6.086989474448E+00
 H  -2.247234822750E-01  4.590425582812E+00  5.861517006898E+00
 O  -5.814343331023E+00  2.203018930041E+00  6.779395104543E+00
 H  -5.562694233580E+00  1.586624889870E+00  6.048047909485E+00
 H  -6.791845675262E+00  2.116899752200E+00  6.794349218092E+00
 H  -3.015364447827E+00 -3.895056495254E+00  5.932544339571E+00
 O   8.400824787543E+00 -4.782469741034E+00  5.510935707399E+00
 H   6.523289058168E+00 -4.897144996025E+00  6.929362383765E+00
 O  -2.227691770180E-01 -2.494213718601E+00  6.804941116684E+00
 H  -2.710644517110E-01 -2.297966095777E+00  5.815086817366E+00
 H  -1.383142249870E-01 -3.468426438853E+00  6.810044063579E+00
 O   6.054944492292E+00 -1.164214599317E+00  6.027435293854E+00
 H   5.460702402429E+00 -1.694881970720E+00  6.628376062667E+00
 O   2.096316665330E+00 -1.252151321292E+00  6.275753833647E+00
 H   2.037063374076E+00 -3.102240392870E-01  6.502525058040E+00
 H   1.266758810800E+00 -1.689796913305E+00  6.624342851882E+00
 H  -4.575724939475E+00 -1.679071207687E+00  5.830508087253E+00
 H  -7.219639499151E+00  4.754477834710E+00  5.719728255821E+00
 O  -4.837118651150E-01 -5.202114815994E+00  5.657149062856E+00
 H  -5.928586581842E+00  3.799716403892E+00  6.081948091521E+00
 O   8.802939814407E+00  4.610280946887E+00  6.075000000000E+00
 H   8.858829061275E+00  5.569312736499E+00  5.974000000000E+00
 H   7.893973086589E+00  4.381294572568E+00  6.382500000000E+00
