  107
Ceria bulk                              
 O  -1.889441199150E+00  1.087435199248E+00  4.099354875349E+00
 O  -3.638195176633E+00  4.332087045050E+00  4.084025069066E+00
 O  -5.646521616400E-02 -2.089596410533E+00  4.190532131432E+00
 O   1.720475253346E+00  1.024584605755E+00  4.227053156895E+00
 O  -1.218480657970E-01  4.366482552011E+00  4.165136673718E+00
 O   3.830227740995E+00 -2.253981383076E+00  4.103577160669E+00
 O  -5.580673286559E+00  1.084152506666E+00  4.160510304444E+00
 O  -7.626596234114E+00  4.388261163290E+00  4.089120503632E+00
 O  -3.767019000972E+00 -2.170920324616E+00  4.164828974356E+00
 CE  1.904775794903E+00 -1.105603986592E+00  3.392701349144E+00
 CE -3.597772781800E-02  2.165981426375E+00  3.273329072436E+00
 CE  3.807926777664E+00 -4.388754282559E+00  3.258601671391E+00
 CE  5.707317152957E+00 -1.088098588192E+00  3.410507115339E+00
 CE  3.842010988688E+00  2.097328692698E+00  3.332945143695E+00
 CE  7.517647419869E+00 -4.331149244145E+00  3.303077474458E+00
 CE -1.909616317959E+00 -1.098146533541E+00  3.269580769424E+00
 CE -3.786463726626E+00  2.187722188788E+00  3.270960229030E+00
 CE  1.223778777750E-01 -4.359355152886E+00  3.315228528764E+00
 O  -1.471187487200E-02 -1.035890914300E-02  2.432784038007E+00
 O  -1.875577299063E+00  3.235680694795E+00  2.387274798650E+00
 O   1.917769499318E+00 -3.241466107726E+00  2.485304053334E+00
 O   3.801460634602E+00 -3.454758587300E-02  2.567225910744E+00
 O   1.961096289568E+00  3.383721833877E+00  2.618810501576E+00
 O   5.740640310610E+00 -3.274481185120E+00  2.486836896465E+00
 O  -3.794792790260E+00 -2.010978878300E-02  2.454017570416E+00
 O  -5.745322986509E+00  3.314428712911E+00  2.523079953876E+00
 O  -1.947608442809E+00 -3.428353152851E+00  2.564322690068E+00
 O   1.916632247534E+00 -1.069894377037E+00  8.881574106060E-01
 O   6.861492865600E-02  2.201845402790E+00  9.067344902300E-01
 O   3.829678474538E+00 -4.386504566061E+00  8.832412163420E-01
 O   5.706655722331E+00 -1.092009582462E+00  8.929455328990E-01
 O   3.791691335561E+00  2.162021201401E+00  8.815097776830E-01
 O   7.594260506094E+00 -4.385074156755E+00  8.576787014280E-01
 O  -1.906245918285E+00 -1.159402793738E+00  9.178530023570E-01
 O  -3.838263655145E+00  2.190466184812E+00  8.973828172880E-01
 O   1.048656842800E-02 -4.372714984543E+00  8.497195840400E-01
 CE  2.111464913100E-02 -1.321496485500E-02  7.962366101400E-02
 CE -1.903315332982E+00  3.285288545003E+00  6.056727083400E-02
 CE  1.906200731258E+00 -3.278594197866E+00  7.257445874500E-02
 CE  3.809165973928E+00 -9.281162680000E-03  8.892513633000E-02
 CE  1.913860191787E+00  3.285063756370E+00  8.590255864500E-02
 CE  5.714684552192E+00 -3.277591413755E+00  6.495483333100E-02
 CE -3.826435801361E+00 -8.931420990000E-03  8.784838703400E-02
 CE -5.722155499527E+00  3.291325190677E+00  9.724243853100E-02
 CE -1.901155217045E+00 -3.305429003144E+00  9.201343877900E-02
 O  -1.898715400619E+00  1.086534897922E+00 -7.384602205170E-01
 O  -3.805594158722E+00  4.360884036682E+00 -7.680892863130E-01
 O  -8.728868156000E-03 -2.177364808678E+00 -7.719192538100E-01
 O   1.902700017748E+00  1.094258456705E+00 -7.803129476880E-01
 O  -6.965364889000E-03  4.370968079318E+00 -7.771472234520E-01
 O   3.827392578228E+00 -2.189344043711E+00 -7.773172852300E-01
 O  -5.712969364824E+00  1.098582212504E+00 -7.642100158140E-01
 O  -7.631100886864E+00  4.380398759424E+00 -7.573291497100E-01
 O  -3.811342241474E+00 -2.182638832533E+00 -7.683626185620E-01
 O   0.000000000000E+00  0.000000000000E+00 -2.343480358560E+00
 O  -1.908784915697E+00  3.287511185140E+00 -2.343480358560E+00
 O   1.908784915703E+00 -3.287511185135E+00 -2.343480358560E+00
 O   3.811162259886E+00 -3.684687325000E-03 -2.343480358560E+00
 O   1.902377344182E+00  3.283826497821E+00 -2.343480358560E+00
 O   5.719947175597E+00 -3.291195872460E+00 -2.343480358560E+00
 O  -3.811162259886E+00  3.684687315000E-03 -2.343480358560E+00
 O  -5.719947175597E+00  3.291195872460E+00 -2.343480358560E+00
 O  -1.902377344189E+00 -3.283826497816E+00 -2.343480358560E+00
 CE -1.906649058529E+00  1.097065290818E+00 -3.124640478080E+00
 CE -3.815433974220E+00  4.384576475963E+00 -3.124640478080E+00
 CE  2.135857172000E-03 -2.190445894318E+00 -3.124640478080E+00
 CE  1.904513201356E+00  1.093380603499E+00 -3.124640478080E+00
 CE -4.271714343000E-03  4.380891788641E+00 -3.124640478080E+00
 CE  3.813298117059E+00 -2.194130581640E+00 -3.124640478080E+00
 CE -5.717811318455E+00  1.100749978126E+00 -3.124640478080E+00
 CE -7.626596234114E+00  4.388261163290E+00 -3.124640478080E+00
 CE -3.809026402715E+00 -2.186761207001E+00 -3.124640478080E+00
 O   1.906649058529E+00 -1.097065290818E+00 -3.905800597599E+00
 O  -2.135857172000E-03  2.190445894318E+00 -3.905800597599E+00
 O   3.815433974220E+00 -4.384576475963E+00 -3.905800597599E+00
 O   5.717811318455E+00 -1.100749978126E+00 -3.905800597599E+00
 O   3.809026402718E+00  2.186761207002E+00 -3.905800597599E+00
 O   7.626596234114E+00 -4.388261163290E+00 -3.905800597599E+00
 O  -1.904513201356E+00 -1.093380603499E+00 -3.905800597599E+00
 O  -3.813298117061E+00  2.194130581640E+00 -3.905800597599E+00
 O   4.271714342000E-03 -4.380891788641E+00 -3.905800597599E+00
 O   4.351924969737E+00 -2.600664977124E+00  7.578728191535E+00
 H   4.621533191960E+00 -3.502581821984E+00  7.276530050692E+00
 O   2.938429789123E+00  2.422645107387E+00  6.012321291421E+00
 H   2.631932153062E+00  3.363919605436E+00  6.026809002483E+00
 H   2.262255397571E+00  1.859994622921E+00  5.516590594513E+00
 O   5.565233692853E+00 -5.037142864204E+00  6.833670100385E+00
 H   3.577830936603E+00 -2.311535004139E+00  7.047989579200E+00
 H  -2.247243952850E-01  4.590426072935E+00  5.861517433263E+00
 O  -5.814343371036E+00  2.203018472450E+00  6.779394853810E+00
 H  -5.562694503947E+00  1.586625406258E+00  6.048047982693E+00
 H  -6.791845490803E+00  2.116899848627E+00  6.794349047187E+00
 H  -3.015364271228E+00 -3.895056460080E+00  5.932544429918E+00
 O   8.400824609604E+00 -4.782469501102E+00  5.510936732696E+00
 H   6.523289088596E+00 -4.897145211101E+00  6.929362092748E+00
 O  -2.227695366720E-01 -2.494214182930E+00  6.804940751533E+00
 H  -2.710642076100E-01 -2.297966122534E+00  5.815086751937E+00
 H  -1.383143122740E-01 -3.468426223817E+00  6.810044119595E+00
 O   6.054944719062E+00 -1.164214885090E+00  6.027435990154E+00
 H   5.460702354628E+00 -1.694881823923E+00  6.628375675177E+00
 O   2.096316380941E+00 -1.252151179725E+00  6.275754079804E+00
 H   2.037063368478E+00 -3.102242830570E-01  6.502525218357E+00
 H   1.266759300040E+00 -1.689796740793E+00  6.624342633318E+00
 H  -4.575724956726E+00 -1.679071155758E+00  5.830507898489E+00
 H  -7.219639899357E+00  4.754478226954E+00  5.719727262543E+00
 O  -4.837122254070E-01 -5.202115405919E+00  5.657149175852E+00
 H  -5.928587021664E+00  3.799716692866E+00  6.081947899198E+00
  107
Ceria bulk                              
 O  -1.889441199150E+00  1.087435199248E+00  4.099354875349E+00
 O  -3.638195176633E+00  4.332087045050E+00  4.084025069066E+00
 O  -5.646521616441E-02 -2.089596410533E+00  4.190532131432E+00
 O   1.720475253346E+00  1.024584605755E+00  4.227053156895E+00
 O  -1.218480657968E-01  4.366482552011E+00  4.165136673718E+00
 O   3.830227740995E+00 -2.253981383076E+00  4.103577160669E+00
 O  -5.580673286559E+00  1.084152506666E+00  4.160510304444E+00
 XX -7.626596234114E+00  4.388261163290E+00  4.089120503632E+00
 O  -3.767019000972E+00 -2.170920324616E+00  4.164828974356E+00
 CE  1.904775794903E+00 -1.105603986592E+00  3.392701349144E+00
 CE -3.597772781823E-02  2.165981426375E+00  3.273329072436E+00
 CE  3.807926777664E+00 -4.388754282559E+00  3.258601671391E+00
 CE  5.707317152957E+00 -1.088098588192E+00  3.410507115339E+00
 CE  3.842010988688E+00  2.097328692698E+00  3.332945143695E+00
 CE  7.517647419869E+00 -4.331149244145E+00  3.303077474458E+00
 CE -1.909616317959E+00 -1.098146533541E+00  3.269580769424E+00
 CE -3.786463726626E+00  2.187722188788E+00  3.270960229030E+00
 CE  1.223778777753E-01 -4.359355152886E+00  3.315228528764E+00
 O  -1.471187487165E-02 -1.035890914285E-02  2.432784038007E+00
 O  -1.875577299063E+00  3.235680694795E+00  2.387274798650E+00
 O   1.917769499318E+00 -3.241466107726E+00  2.485304053334E+00
 O   3.801460634602E+00 -3.454758587251E-02  2.567225910744E+00
 O   1.961096289568E+00  3.383721833877E+00  2.618810501576E+00
 O   5.740640310610E+00 -3.274481185120E+00  2.486836896465E+00
 O  -3.794792790260E+00 -2.010978878299E-02  2.454017570416E+00
 O  -5.745322986509E+00  3.314428712911E+00  2.523079953876E+00
 O  -1.947608442809E+00 -3.428353152851E+00  2.564322690068E+00
 O   1.916632247534E+00 -1.069894377037E+00  8.881574106058E-01
 O   6.861492865562E-02  2.201845402790E+00  9.067344902304E-01
 O   3.829678474538E+00 -4.386504566061E+00  8.832412163419E-01
 O   5.706655722330E+00 -1.092009582462E+00  8.929455328993E-01
 O   3.791691335561E+00  2.162021201401E+00  8.815097776827E-01
 O   7.594260506095E+00 -4.385074156755E+00  8.576787014278E-01
 O  -1.906245918285E+00 -1.159402793738E+00  9.178530023566E-01
 O  -3.838263655145E+00  2.190466184812E+00  8.973828172876E-01
 O   1.048656842810E-02 -4.372714984543E+00  8.497195840404E-01
 CE  2.111464913082E-02 -1.321496485521E-02  7.962366101440E-02
 CE -1.903315332982E+00  3.285288545003E+00  6.056727083366E-02
 CE  1.906200731258E+00 -3.278594197866E+00  7.257445874461E-02
 CE  3.809165973928E+00 -9.281162680346E-03  8.892513633043E-02
 CE  1.913860191787E+00  3.285063756370E+00  8.590255864477E-02
 CE  5.714684552192E+00 -3.277591413755E+00  6.495483333080E-02
 CE -3.826435801361E+00 -8.931420989728E-03  8.784838703388E-02
 CE -5.722155499527E+00  3.291325190677E+00  9.724243853114E-02
 CE -1.901155217045E+00 -3.305429003144E+00  9.201343877916E-02
 O  -1.898715400619E+00  1.086534897922E+00 -7.384602205170E-01
 O  -3.805594158722E+00  4.360884036682E+00 -7.680892863132E-01
 O  -8.728868156010E-03 -2.177364808678E+00 -7.719192538102E-01
 O   1.902700017748E+00  1.094258456705E+00 -7.803129476877E-01
 O  -6.965364889150E-03  4.370968079318E+00 -7.771472234522E-01
 O   3.827392578228E+00 -2.189344043711E+00 -7.773172852304E-01
 O  -5.712969364823E+00  1.098582212504E+00 -7.642100158136E-01
 O  -7.631100886864E+00  4.380398759424E+00 -7.573291497100E-01
 O  -3.811342241474E+00 -2.182638832533E+00 -7.683626185617E-01
 O   0.000000000000E+00  0.000000000000E+00 -2.343480358560E+00
 O  -1.908784915697E+00  3.287511185140E+00 -2.343480358560E+00
 O   1.908784915703E+00 -3.287511185135E+00 -2.343480358560E+00
 O   3.811162259886E+00 -3.684687324570E-03 -2.343480358560E+00
 O   1.902377344182E+00  3.283826497821E+00 -2.343480358560E+00
 O   5.719947175597E+00 -3.291195872460E+00 -2.343480358560E+00
 O  -3.811162259886E+00  3.684687314567E-03 -2.343480358560E+00
 O  -5.719947175597E+00  3.291195872460E+00 -2.343480358560E+00
 O  -1.902377344189E+00 -3.283826497816E+00 -2.343480358560E+00
 CE -1.906649058529E+00  1.097065290818E+00 -3.124640478080E+00
 CE -3.815433974220E+00  4.384576475963E+00 -3.124640478080E+00
 CE  2.135857171853E-03 -2.190445894318E+00 -3.124640478080E+00
 CE  1.904513201356E+00  1.093380603499E+00 -3.124640478080E+00
 CE -4.271714342705E-03  4.380891788641E+00 -3.124640478080E+00
 CE  3.813298117059E+00 -2.194130581640E+00 -3.124640478080E+00
 CE -5.717811318455E+00  1.100749978126E+00 -3.124640478080E+00
 CE -7.626596234114E+00  4.388261163290E+00 -3.124640478080E+00
 CE -3.809026402715E+00 -2.186761207001E+00 -3.124640478080E+00
 O   1.906649058529E+00 -1.097065290818E+00 -3.905800597599E+00
 O  -2.135857171853E-03  2.190445894318E+00 -3.905800597599E+00
 O   3.815433974220E+00 -4.384576475963E+00 -3.905800597599E+00
 O   5.717811318455E+00 -1.100749978126E+00 -3.905800597599E+00
 O   3.809026402718E+00  2.186761207002E+00 -3.905800597599E+00
 O   7.626596234114E+00 -4.388261163290E+00 -3.905800597599E+00
 O  -1.904513201356E+00 -1.093380603499E+00 -3.905800597599E+00
 O  -3.813298117061E+00  2.194130581640E+00 -3.905800597599E+00
 O   4.271714341705E-03 -4.380891788641E+00 -3.905800597599E+00
 O   4.351924969737E+00 -2.600664977124E+00  7.578728191535E+00
 H   4.621533191960E+00 -3.502581821984E+00  7.276530050691E+00
 O   2.938429789123E+00  2.422645107387E+00  6.012321291421E+00
 H   2.631932153062E+00  3.363919605436E+00  6.026809002483E+00
 H   2.262255397571E+00  1.859994622921E+00  5.516590594513E+00
 O   5.565233692853E+00 -5.037142864204E+00  6.833670100385E+00
 H   3.577830936603E+00 -2.311535004139E+00  7.047989579201E+00
 H  -2.247243952851E-01  4.590426072935E+00  5.861517433263E+00
 O  -5.814343371036E+00  2.203018472450E+00  6.779394853810E+00
 H  -5.562694503947E+00  1.586625406258E+00  6.048047982693E+00
 H  -6.791845490804E+00  2.116899848627E+00  6.794349047187E+00
 H  -3.015364271228E+00 -3.895056460080E+00  5.932544429919E+00
 O   8.400824609604E+00 -4.782469501102E+00  5.510936732696E+00
 H   6.523289088596E+00 -4.897145211101E+00  6.929362092748E+00
 O  -2.227695366722E-01 -2.494214182930E+00  6.804940751533E+00
 H  -2.710642076100E-01 -2.297966122534E+00  5.815086751937E+00
 H  -1.383143122736E-01 -3.468426223817E+00  6.810044119595E+00
 O   6.054944719062E+00 -1.164214885090E+00  6.027435990154E+00
 H   5.460702354628E+00 -1.694881823923E+00  6.628375675177E+00
 O   2.096316380941E+00 -1.252151179725E+00  6.275754079804E+00
 H   2.037063368478E+00 -3.102242830573E-01  6.502525218357E+00
 H   1.266759300040E+00 -1.689796740793E+00  6.624342633318E+00
 H  -4.575724956726E+00 -1.679071155759E+00  5.830507898490E+00
 H  -7.219639899357E+00  4.754478226954E+00  5.719727262543E+00
 O  -4.837122254065E-01 -5.202115405919E+00  5.657149175852E+00
 H  -5.928587021665E+00  3.799716692866E+00  6.081947899198E+00
  107
Ceria bulk                               E -1.7506224420438E+04 DE-6.8E-08(  6)
 O  -1.889441024783E+00  1.087435086117E+00  4.099355163898E+00
 O  -3.638194221229E+00  4.332087341243E+00  4.084024574279E+00
 O  -5.646525850184E-02 -2.089596325019E+00  4.190532494878E+00
 O   1.720474899602E+00  1.024584690123E+00  4.227053038973E+00
 O  -1.218485051463E-01  4.366482657404E+00  4.165136735803E+00
 O   3.830227592353E+00 -2.253981424300E+00  4.103577034540E+00
 O  -5.580672912316E+00  1.084153116376E+00  4.160509513791E+00
 XX -7.626596180890E+00  4.388261109353E+00  4.089120503632E+00
 O  -3.767019550102E+00 -2.170920327622E+00  4.164829589892E+00
 CE  1.904774799905E+00 -1.105604202998E+00  3.392701897689E+00
 CE -3.597462337826E-02  2.165981216131E+00  3.273328799541E+00
 CE  3.807926917052E+00 -4.388753722037E+00  3.258600249433E+00
 CE  5.707318726160E+00 -1.088098847097E+00  3.410506901110E+00
 CE  3.842010172382E+00  2.097328294519E+00  3.332945885645E+00
 CE  7.517646538294E+00 -4.331148736816E+00  3.303077664563E+00
 CE -1.909615960547E+00 -1.098146988647E+00  3.269579120909E+00
 CE -3.786467204083E+00  2.187721835827E+00  3.270959696199E+00
 CE  1.223791032566E-01 -4.359355345271E+00  3.315227946041E+00
 O  -1.471195790284E-02 -1.035886682311E-02  2.432783986342E+00
 O  -1.875576948057E+00  3.235680887643E+00  2.387275173394E+00
 O   1.917769118393E+00 -3.241465956772E+00  2.485304791610E+00
 O   3.801460089321E+00 -3.454789605265E-02  2.567226943041E+00
 O   1.961096730256E+00  3.383721983281E+00  2.618809385835E+00
 O   5.740640486696E+00 -3.274480945461E+00  2.486836723020E+00
 O  -3.794792448589E+00 -2.011016503458E-02  2.454017710175E+00
 O  -5.745323417337E+00  3.314429433772E+00  2.523081065277E+00
 O  -1.947608224939E+00 -3.428352917529E+00  2.564322150475E+00
 O   1.916632333448E+00 -1.069894176938E+00  8.881567381348E-01
 O   6.861457741186E-02  2.201845404853E+00  9.067337809792E-01
 O   3.829678386261E+00 -4.386504125953E+00  8.832409025356E-01
 O   5.706655249695E+00 -1.092009157532E+00  8.929461427886E-01
 O   3.791691672099E+00  2.162020217113E+00  8.815097052361E-01
 O   7.594260371245E+00 -4.385074077290E+00  8.576781487793E-01
 O  -1.906246140318E+00 -1.159402432627E+00  9.178525646093E-01
 O  -3.838263513303E+00  2.190465913081E+00  8.973825608303E-01
 O   1.048702055792E-02 -4.372715278059E+00  8.497195725623E-01
 CE  2.111518752799E-02 -1.321517707642E-02  7.962397519824E-02
 CE -1.903316410021E+00  3.285289091240E+00  6.056783856300E-02
 CE  1.906199626719E+00 -3.278593507589E+00  7.257527567296E-02
 CE  3.809165804063E+00 -9.282101769412E-03  8.892531743823E-02
 CE  1.913860018491E+00  3.285063617409E+00  8.590313994437E-02
 CE  5.714684604025E+00 -3.277591615519E+00  6.495489150641E-02
 CE -3.826435067724E+00 -8.930934535526E-03  8.784799196367E-02
 CE -5.722155445210E+00  3.291325306163E+00  9.724221742855E-02
 CE -1.901155035927E+00 -3.305429161675E+00  9.201337701738E-02
 O  -1.898715792573E+00  1.086534966658E+00 -7.384599611823E-01
 O  -3.805594254283E+00  4.360883711953E+00 -7.680894965760E-01
 O  -8.729167893975E-03 -2.177364809540E+00 -7.719195057249E-01
 O   1.902700208872E+00  1.094258578443E+00 -7.803129259771E-01
 O  -6.965512819114E-03  4.370968123484E+00 -7.771471298025E-01
 O   3.827392842295E+00 -2.189344203492E+00 -7.773176677501E-01
 O  -5.712969460029E+00  1.098582006950E+00 -7.642099539380E-01
 O  -7.631100694629E+00  4.380398665420E+00 -7.573288997593E-01
 O  -3.811342235217E+00 -2.182638750526E+00 -7.683623371226E-01
 O   0.000000000000E+00  0.000000000000E+00 -2.343480358560E+00
 O  -1.908784895693E+00  3.287511156348E+00 -2.343480358560E+00
 O   1.908784895699E+00 -3.287511156343E+00 -2.343480358560E+00
 O   3.811162239972E+00 -3.684675663820E-03 -2.343480358560E+00
 O   1.902377344272E+00  3.283826480690E+00 -2.343480358560E+00
 O   5.719947135679E+00 -3.291195832007E+00 -2.343480358560E+00
 O  -3.811162239972E+00  3.684675653817E-03 -2.343480358560E+00
 O  -5.719947135679E+00  3.291195832007E+00 -2.343480358560E+00
 O  -1.902377344279E+00 -3.283826480685E+00 -2.343480358560E+00
 CE -1.906649045223E+00  1.097065277334E+00 -3.124640478080E+00
 CE -3.815433940910E+00  4.384576433687E+00 -3.124640478080E+00
 CE  2.135850473536E-03 -2.190445879011E+00 -3.124640478080E+00
 CE  1.904513194749E+00  1.093380601676E+00 -3.124640478080E+00
 CE -4.271700946072E-03  4.380891758026E+00 -3.124640478080E+00
 CE  3.813298090447E+00 -2.194130554672E+00 -3.124640478080E+00
 CE -5.717811285235E+00  1.100749952981E+00 -3.124640478080E+00
 CE -7.626596180890E+00  4.388261109353E+00 -3.124640478080E+00
 CE -3.809026389500E+00 -2.186761203354E+00 -3.124640478080E+00
 O   1.906649045223E+00 -1.097065277334E+00 -3.905800597599E+00
 O  -2.135850473536E-03  2.190445879011E+00 -3.905800597599E+00
 O   3.815433940910E+00 -4.384576433687E+00 -3.905800597599E+00
 O   5.717811285235E+00 -1.100749952981E+00 -3.905800597599E+00
 O   3.809026389503E+00  2.186761203355E+00 -3.905800597599E+00
 O   7.626596180890E+00 -4.388261109353E+00 -3.905800597599E+00
 O  -1.904513194749E+00 -1.093380601676E+00 -3.905800597599E+00
 O  -3.813298090449E+00  2.194130554672E+00 -3.905800597599E+00
 O   4.271700945072E-03 -4.380891758026E+00 -3.905800597599E+00
 O   4.351924977049E+00 -2.600664951135E+00  7.578728488024E+00
 H   4.621533044335E+00 -3.502581985033E+00  7.276529811610E+00
 O   2.938430739207E+00  2.422644931176E+00  6.012321370154E+00
 H   2.631932070362E+00  3.363920164053E+00  6.026808928250E+00
 H   2.262255197866E+00  1.859994679759E+00  5.516590952354E+00
 O   5.565233047867E+00 -5.037142497130E+00  6.833670233449E+00
 H   3.577830707120E+00 -2.311535012527E+00  7.047989474448E+00
 H  -2.247234822746E-01  4.590425582812E+00  5.861517006898E+00
 O  -5.814343331023E+00  2.203018930041E+00  6.779395104543E+00
 H  -5.562694233580E+00  1.586624889870E+00  6.048047909485E+00
 H  -6.791845675262E+00  2.116899752200E+00  6.794349218092E+00
 H  -3.015364447827E+00 -3.895056495254E+00  5.932544339571E+00
 O   8.400824787543E+00 -4.782469741034E+00  5.510935707399E+00
 H   6.523289058168E+00 -4.897144996025E+00  6.929362383765E+00
 O  -2.227691770175E-01 -2.494213718601E+00  6.804941116684E+00
 H  -2.710644517110E-01 -2.297966095777E+00  5.815086817366E+00
 H  -1.383142249870E-01 -3.468426438853E+00  6.810044063579E+00
 O   6.054944492292E+00 -1.164214599317E+00  6.027435293854E+00
 H   5.460702402429E+00 -1.694881970720E+00  6.628376062667E+00
 O   2.096316665330E+00 -1.252151321292E+00  6.275753833647E+00
 H   2.037063374076E+00 -3.102240392871E-01  6.502525058040E+00
 H   1.266758810800E+00 -1.689796913305E+00  6.624342851882E+00
 H  -4.575724939475E+00 -1.679071207687E+00  5.830508087253E+00
 H  -7.219639499151E+00  4.754477834710E+00  5.719728255821E+00
 O  -4.837118651146E-01 -5.202114815994E+00  5.657149062856E+00
 H  -5.928586581842E+00  3.799716403892E+00  6.081948091521E+00
  107
Ceria bulk                               E -1.7506224420468E+04 DE-7.6E-11(  6)
 O  -1.889441024783E+00  1.087435086117E+00  4.099355163898E+00
 O  -3.638194221229E+00  4.332087341243E+00  4.084024574279E+00
 O  -5.646525850184E-02 -2.089596325019E+00  4.190532494878E+00
 O   1.720474899602E+00  1.024584690123E+00  4.227053038973E+00
 O  -1.218485051463E-01  4.366482657404E+00  4.165136735803E+00
 O   3.830227592353E+00 -2.253981424300E+00  4.103577034540E+00
 O  -5.580672912316E+00  1.084153116376E+00  4.160509513791E+00
 XX -7.626596180890E+00  4.388261109353E+00  4.089120503632E+00
 O  -3.767019550102E+00 -2.170920327622E+00  4.164829589892E+00
 CE  1.904774799905E+00 -1.105604202998E+00  3.392701897689E+00
 CE -3.597462337826E-02  2.165981216131E+00  3.273328799541E+00
 CE  3.807926917052E+00 -4.388753722037E+00  3.258600249433E+00
 CE  5.707318726160E+00 -1.088098847097E+00  3.410506901110E+00
 CE  3.842010172382E+00  2.097328294519E+00  3.332945885645E+00
 CE  7.517646538294E+00 -4.331148736816E+00  3.303077664563E+00
 CE -1.909615960547E+00 -1.098146988647E+00  3.269579120909E+00
 CE -3.786467204083E+00  2.187721835827E+00  3.270959696199E+00
 CE  1.223791032566E-01 -4.359355345271E+00  3.315227946041E+00
 O  -1.471195790284E-02 -1.035886682311E-02  2.432783986342E+00
 O  -1.875576948057E+00  3.235680887643E+00  2.387275173394E+00
 O   1.917769118393E+00 -3.241465956772E+00  2.485304791610E+00
 O   3.801460089321E+00 -3.454789605265E-02  2.567226943041E+00
 O   1.961096730256E+00  3.383721983281E+00  2.618809385835E+00
 O   5.740640486696E+00 -3.274480945461E+00  2.486836723020E+00
 O  -3.794792448589E+00 -2.011016503458E-02  2.454017710175E+00
 O  -5.745323417337E+00  3.314429433772E+00  2.523081065277E+00
 O  -1.947608224939E+00 -3.428352917529E+00  2.564322150475E+00
 O   1.916632333448E+00 -1.069894176938E+00  8.881567381348E-01
 O   6.861457741186E-02  2.201845404853E+00  9.067337809792E-01
 O   3.829678386261E+00 -4.386504125953E+00  8.832409025356E-01
 O   5.706655249695E+00 -1.092009157532E+00  8.929461427886E-01
 O   3.791691672099E+00  2.162020217113E+00  8.815097052361E-01
 O   7.594260371245E+00 -4.385074077290E+00  8.576781487793E-01
 O  -1.906246140318E+00 -1.159402432627E+00  9.178525646093E-01
 O  -3.838263513303E+00  2.190465913081E+00  8.973825608303E-01
 O   1.048702055792E-02 -4.372715278059E+00  8.497195725623E-01
 CE  2.111518752799E-02 -1.321517707642E-02  7.962397519824E-02
 CE -1.903316410021E+00  3.285289091240E+00  6.056783856300E-02
 CE  1.906199626719E+00 -3.278593507589E+00  7.257527567296E-02
 CE  3.809165804063E+00 -9.282101769412E-03  8.892531743823E-02
 CE  1.913860018491E+00  3.285063617409E+00  8.590313994437E-02
 CE  5.714684604025E+00 -3.277591615519E+00  6.495489150641E-02
 CE -3.826435067724E+00 -8.930934535526E-03  8.784799196367E-02
 CE -5.722155445210E+00  3.291325306163E+00  9.724221742855E-02
 CE -1.901155035927E+00 -3.305429161675E+00  9.201337701738E-02
 O  -1.898715792573E+00  1.086534966658E+00 -7.384599611823E-01
 O  -3.805594254283E+00  4.360883711953E+00 -7.680894965760E-01
 O  -8.729167893975E-03 -2.177364809540E+00 -7.719195057249E-01
 O   1.902700208872E+00  1.094258578443E+00 -7.803129259771E-01
 O  -6.965512819114E-03  4.370968123484E+00 -7.771471298025E-01
 O   3.827392842295E+00 -2.189344203492E+00 -7.773176677501E-01
 O  -5.712969460029E+00  1.098582006950E+00 -7.642099539380E-01
 O  -7.631100694629E+00  4.380398665420E+00 -7.573288997593E-01
 O  -3.811342235217E+00 -2.182638750526E+00 -7.683623371226E-01
 O   0.000000000000E+00  0.000000000000E+00 -2.343480358560E+00
 O  -1.908784895693E+00  3.287511156348E+00 -2.343480358560E+00
 O   1.908784895699E+00 -3.287511156343E+00 -2.343480358560E+00
 O   3.811162239972E+00 -3.684675663820E-03 -2.343480358560E+00
 O   1.902377344272E+00  3.283826480690E+00 -2.343480358560E+00
 O   5.719947135679E+00 -3.291195832007E+00 -2.343480358560E+00
 O  -3.811162239972E+00  3.684675653817E-03 -2.343480358560E+00
 O  -5.719947135679E+00  3.291195832007E+00 -2.343480358560E+00
 O  -1.902377344279E+00 -3.283826480685E+00 -2.343480358560E+00
 CE -1.906649045223E+00  1.097065277334E+00 -3.124640478080E+00
 CE -3.815433940910E+00  4.384576433687E+00 -3.124640478080E+00
 CE  2.135850473536E-03 -2.190445879011E+00 -3.124640478080E+00
 CE  1.904513194749E+00  1.093380601676E+00 -3.124640478080E+00
 CE -4.271700946072E-03  4.380891758026E+00 -3.124640478080E+00
 CE  3.813298090447E+00 -2.194130554672E+00 -3.124640478080E+00
 CE -5.717811285235E+00  1.100749952981E+00 -3.124640478080E+00
 CE -7.626596180890E+00  4.388261109353E+00 -3.124640478080E+00
 CE -3.809026389500E+00 -2.186761203354E+00 -3.124640478080E+00
 O   1.906649045223E+00 -1.097065277334E+00 -3.905800597599E+00
 O  -2.135850473536E-03  2.190445879011E+00 -3.905800597599E+00
 O   3.815433940910E+00 -4.384576433687E+00 -3.905800597599E+00
 O   5.717811285235E+00 -1.100749952981E+00 -3.905800597599E+00
 O   3.809026389503E+00  2.186761203355E+00 -3.905800597599E+00
 O   7.626596180890E+00 -4.388261109353E+00 -3.905800597599E+00
 O  -1.904513194749E+00 -1.093380601676E+00 -3.905800597599E+00
 O  -3.813298090449E+00  2.194130554672E+00 -3.905800597599E+00
 O   4.271700945072E-03 -4.380891758026E+00 -3.905800597599E+00
 O   4.351924977049E+00 -2.600664951135E+00  7.578728488024E+00
 H   4.621533044335E+00 -3.502581985033E+00  7.276529811610E+00
 O   2.938430739207E+00  2.422644931176E+00  6.012321370154E+00
 H   2.631932070362E+00  3.363920164053E+00  6.026808928250E+00
 H   2.262255197866E+00  1.859994679759E+00  5.516590952354E+00
 O   5.565233047867E+00 -5.037142497130E+00  6.833670233449E+00
 H   3.577830707120E+00 -2.311535012527E+00  7.047989474448E+00
 H  -2.247234822746E-01  4.590425582812E+00  5.861517006898E+00
 O  -5.814343331023E+00  2.203018930041E+00  6.779395104543E+00
 H  -5.562694233580E+00  1.586624889870E+00  6.048047909485E+00
 H  -6.791845675262E+00  2.116899752200E+00  6.794349218092E+00
 H  -3.015364447827E+00 -3.895056495254E+00  5.932544339571E+00
 O   8.400824787543E+00 -4.782469741034E+00  5.510935707399E+00
 H   6.523289058168E+00 -4.897144996025E+00  6.929362383765E+00
 O  -2.227691770175E-01 -2.494213718601E+00  6.804941116684E+00
 H  -2.710644517110E-01 -2.297966095777E+00  5.815086817366E+00
 H  -1.383142249870E-01 -3.468426438853E+00  6.810044063579E+00
 O   6.054944492292E+00 -1.164214599317E+00  6.027435293854E+00
 H   5.460702402429E+00 -1.694881970720E+00  6.628376062667E+00
 O   2.096316665330E+00 -1.252151321292E+00  6.275753833647E+00
 H   2.037063374076E+00 -3.102240392871E-01  6.502525058040E+00
 H   1.266758810800E+00 -1.689796913305E+00  6.624342851882E+00
 H  -4.575724939475E+00 -1.679071207687E+00  5.830508087253E+00
 H  -7.219639499151E+00  4.754477834710E+00  5.719728255821E+00
 O  -4.837118651146E-01 -5.202114815994E+00  5.657149062856E+00
 H  -5.928586581842E+00  3.799716403892E+00  6.081948091521E+00
