  110
Ceria bulk                              
 O  -1.863946343017E+00  1.103753459171E+00  4.087845315521E+00
 O   1.310244030215E+01  5.442747009390E+00  9.116414076870E-01
 O   1.701537548574E+01  5.469034918975E+00  9.214782639850E-01
 O   1.817800413633E+00  1.108260497920E+00  4.101416067922E+00
 O   1.126481632311E+01  4.267911941450E+00  4.100712902877E+00
 O  -5.615959802899E+00  1.206030194023E+00  4.114203894326E+00
 O   1.316107631697E+01  3.241946053563E+00  2.408190355773E+00
 O   1.115571337323E+01  6.519209336599E+00  2.575798670693E+00
 CE  1.732109504851E+00 -9.626538674010E-01  3.173093879303E+00
 CE -3.939733574000E-03  2.177175344828E+00  3.246521923673E+00
 CE  3.805310483325E+00 -4.554848473284E+00  3.173112756190E+00
 CE  5.771824089685E+00 -1.024111274556E+00  3.221556279186E+00
 CE  3.771333684468E+00  2.197209128398E+00  3.264920965352E+00
 CE  7.560411623230E+00 -4.366977692321E+00  3.265002096767E+00
 CE -1.883077170920E+00 -1.080850388054E+00  3.245592312993E+00
 CE -3.765203587124E+00  2.179203898451E+00  3.246201643493E+00
 CE  3.749769019300E-02 -4.335584860894E+00  3.314122389039E+00
 O  -2.560364648800E-02  5.336492283500E-02  2.363601607391E+00
 O  -1.854903204736E+00  3.220055411856E+00  2.363634329304E+00
 O   1.893029319048E+01  4.224360696665E+00  4.089995726670E+00
 O   3.713182796390E+00 -1.102478305360E-01  2.573375865010E+00
 O   1.496083140438E+01  4.280201790026E+00  4.114951695748E+00
 O   1.691224271426E+01  3.224108790907E+00  2.410803572367E+00
 O  -3.716033100998E+00  3.476524695900E-02  2.401182055210E+00
 O   1.689558281092E+01  7.747975982402E+00  4.089462654653E+00
 O   1.325380834430E+01  7.565341850266E+00  4.115191359996E+00
 O   1.844157813861E+00 -1.084231987377E+00  8.673537804850E-01
 O   1.171884014100E-02  2.186477965283E+00  8.246077206300E-01
 O   3.757310073466E+00 -4.397109391688E+00  8.673775872580E-01
 O   5.652710432951E+00 -1.093752297717E+00  8.615692281150E-01
 O   3.754937070853E+00  2.113812053414E+00  9.110573112310E-01
 O   1.906320476174E+01  6.650363918405E+00  2.708664144078E+00
 O  -1.867715966144E+00 -1.090344012814E+00  8.457203475280E-01
 O  -3.765170561972E+00  2.196308530605E+00  8.447098957050E-01
 O   1.501939408217E+01  6.499020696009E+00  2.411937091004E+00
 CE -9.017683541000E-03  9.086459185000E-03  1.520417839000E-03
 CE -1.884403499119E+00  3.256418459934E+00  1.437058036000E-03
 CE  1.896726465247E+00 -3.261926145731E+00  4.174199268900E-02
 CE  3.765520899325E+00 -8.453276635000E-03  5.858823065700E-02
 CE  1.873644868964E+00  3.261974578192E+00  5.956142902200E-02
 CE  5.648591153816E+00 -3.269714662164E+00  5.823502882300E-02
 CE -3.760971081856E+00  8.519813741000E-03  2.846629322600E-02
 CE -5.633591362605E+00  3.282513306273E+00  7.409340037200E-02
 CE -1.862128287164E+00 -3.250606767856E+00  7.409959285400E-02
 O  -1.879230453587E+00  1.094435611557E+00 -7.926642833730E-01
 O  -3.768338431637E+00  4.365953769440E+00 -7.835059203200E-01
 O   8.592326638000E-03 -2.176871087976E+00 -7.840585336150E-01
 O   1.896216374153E+00  1.085205851158E+00 -7.744824195530E-01
 O  -1.943412400008E-05  4.369813801037E+00 -7.747100747520E-01
 O   3.771980514085E+00 -2.178874755662E+00 -7.554606408550E-01
 O  -5.657275117093E+00  1.106328131449E+00 -7.654104338350E-01
 O  -7.519418869240E+00  4.375686712793E+00 -7.151434315930E-01
 O  -3.758294553577E+00 -2.183236027244E+00 -7.657478359770E-01
 O   0.000000000000E+00  0.000000000000E+00 -2.343480358560E+00
 O  -1.886891264406E+00  3.268469160205E+00 -2.343480358560E+00
 O   1.886891264411E+00 -3.268469160200E+00 -2.343480358560E+00
 O   3.760927715376E+00 -7.393732840000E-03 -2.343480358560E+00
 O   1.874036450964E+00  3.261075427371E+00 -2.343480358560E+00
 O   5.647818979796E+00 -3.275862893040E+00 -2.343480358560E+00
 O  -3.760927715376E+00  7.393732830000E-03 -2.343480358560E+00
 O  -5.647818979796E+00  3.275862893040E+00 -2.343480358560E+00
 O  -1.874036450969E+00 -3.261075427366E+00 -2.343480358560E+00
 CE -1.882606326595E+00  1.091954297679E+00 -3.124640478080E+00
 CE -3.769497590996E+00  4.360423457889E+00 -3.124640478080E+00
 CE  4.284937815000E-03 -2.176514862523E+00 -3.124640478080E+00
 CE  1.878321388780E+00  1.084560564844E+00 -3.124640478080E+00
 CE -8.569875628000E-03  4.353029725050E+00 -3.124640478080E+00
 CE  3.765212653191E+00 -2.183908595360E+00 -3.124640478080E+00
 CE -5.643534042013E+00  1.099348030501E+00 -3.124640478080E+00
 CE -7.530425306379E+00  4.367817190728E+00 -3.124640478080E+00
 CE -3.756642777564E+00 -2.169121129691E+00 -3.124640478080E+00
 O   1.882606326595E+00 -1.091954297679E+00 -3.905800597599E+00
 O  -4.284937815000E-03  2.176514862523E+00 -3.905800597599E+00
 O   3.769497590996E+00 -4.360423457889E+00 -3.905800597599E+00
 O   5.643534042013E+00 -1.099348030501E+00 -3.905800597599E+00
 O   3.756642777568E+00  2.169121129692E+00 -3.905800597599E+00
 O   7.530425306379E+00 -4.367817190728E+00 -3.905800597599E+00
 O  -1.878321388780E+00 -1.084560564844E+00 -3.905800597599E+00
 O  -3.765212653194E+00  2.183908595359E+00 -3.905800597599E+00
 O   8.569875627000E-03 -4.353029725051E+00 -3.905800597599E+00
 O   7.109090742995E+00 -3.870641751985E+00  5.960305272136E+00
 H   7.290034460022E+00 -2.987247239702E+00  5.523919778567E+00
 O  -7.408927907918E+00  4.877678383556E+00  6.635527242591E+00
 H  -8.235287715773E-01 -4.629382971101E+00  6.789365695230E+00
 H  -7.435087353949E+00  4.748268639325E+00  5.624166563335E+00
 H   1.517639350403E+00 -3.882165318171E-01  6.253789426095E+00
 O   2.066936093473E+00 -1.133996520439E+00  5.951996818952E+00
 H   3.003014380761E+00 -8.676997455210E-01  6.106042258646E+00
 O   4.773211038049E+00  2.973299623499E-02  6.322022079472E+00
 H   5.234801846735E+00  5.055850743862E-01  5.535033422496E+00
 H   5.431727345799E+00 -7.037585017352E-02  7.026686079226E+00
 O   4.630870573549E-01  2.529551363406E+00  5.830820983593E+00
 H   1.430558170002E+00  2.354853558596E+00  5.942236484269E+00
 H   3.745653555136E-01  3.493511426414E+00  5.675064613077E+00
 O   4.163578557679E+00 -3.953514839762E+00  5.881345235473E+00
 H   5.126501515335E+00 -4.062201171659E+00  6.046968536205E+00
 H   4.055513206087E+00 -3.019008076454E+00  5.574971067139E+00
 H   7.916367944283E+00 -4.148572819945E+00  6.456005535493E+00
 O   8.423305082229E-01 -4.117882617601E+00  6.100125367904E+00
 H   1.472147086294E+00 -4.696579630124E+00  5.586589300676E+00
 H   1.277255277312E+00 -3.250725588796E+00  6.206131371824E+00
 H  -6.508362351009E-01 -1.875075606400E+00  5.505412704527E+00
 O  -1.396585645667E+00 -1.392683570173E+00  5.962988842384E+00
 H  -1.886952857023E+00 -2.056042150473E+00  6.472419223998E+00
 O  -3.344723532149E+00  2.053499789833E+00  5.942218138093E+00
 H  -2.518367980968E+00  1.575066457945E+00  5.674874888322E+00
 H  -3.070122487012E+00  2.931232351451E+00  6.256047617267E+00
 O   3.287409616690E+00  2.288541023100E+00  6.015761725536E+00
 H   3.768980542985E+00  1.510760253151E+00  6.387196546877E+00
 H   3.609461197317E+00  3.110495355871E+00  6.466811890937E+00
