  110
CERIA BULK                              
 O  -1.849750801608E+00  1.098960173232E+00  4.065776624034E+00
 O  -3.672397107534E+00  4.373845178154E+00  4.060207351749E+00
 O   3.437309426500E-02 -2.198931835649E+00  4.002733558828E+00
 O   1.910980476276E+00  1.095108874567E+00  4.001178632829E+00
 O  -1.179387970900E-02  4.334644012484E+00  3.959284314099E+00
 O   3.752915293050E+00 -2.105595373320E+00  4.048805689104E+00
 O  -5.646781513516E+00  1.157154412182E+00  4.075912487576E+00
 O  -7.562405287200E+00  4.402331170061E+00  4.025598878259E+00
 O  -3.742448590946E+00 -2.083159267088E+00  4.052335269495E+00
 CE  1.894156100720E+00 -1.097205043626E+00  3.269464250197E+00
 CE  5.675943445000E-03  2.166012063093E+00  3.254048641210E+00
 CE  3.769000427212E+00 -4.361018636413E+00  3.272210907239E+00
 CE  5.622014350057E+00 -1.070765995226E+00  3.255795225245E+00
 CE  3.744235300852E+00  2.178144758121E+00  3.244101754133E+00
 CE  7.507816331783E+00 -4.354210881510E+00  3.257134830815E+00
 CE -1.883343417227E+00 -1.060207819212E+00  3.273411716530E+00
 CE -3.753949433636E+00  2.200334972471E+00  3.253000498598E+00
 CE  9.953838122000E-03 -4.352322673214E+00  3.314088901220E+00
 O   2.636840320000E-04 -1.539727720000E-04  2.426804529246E+00
 O  -1.887542074488E+00  3.248773982066E+00  2.399980796908E+00
 O   1.900383997778E+00 -3.273329709812E+00  2.427315676736E+00
 O   3.776371019953E+00  1.476668533500E-02  2.398118016123E+00
 O   1.880889742738E+00  3.263352133757E+00  2.400698304152E+00
 O   5.638854363071E+00 -3.238216951751E+00  2.439127581364E+00
 O  -3.758911208182E+00  4.507483989200E-02  2.425196277109E+00
 O  -5.620547843596E+00  3.299890415935E+00  2.440384291471E+00
 O  -1.882082368433E+00 -3.239742362965E+00  2.434928453788E+00
 O   1.881865153503E+00 -1.090005218263E+00  8.633135599540E-01
 O   1.709430516000E-03  2.171101938388E+00  8.523983986830E-01
 O   3.770907727359E+00 -4.356191160506E+00  8.593153602260E-01
 O   5.637699697341E+00 -1.090583222319E+00  8.524869421190E-01
 O   3.761736654268E+00  2.183303512601E+00  8.500929528640E-01
 O   7.504829183159E+00 -4.354967062366E+00  8.585322189790E-01
 O  -1.882276811466E+00 -1.073859191225E+00  8.706205713130E-01
 O  -3.766623604938E+00  2.190510122392E+00  8.460664730610E-01
 O   2.204957661000E-03 -4.343730439071E+00  8.639736469310E-01
 CE  2.406179882000E-03  7.194458240000E-04  6.237760845600E-02
 CE -1.877072936597E+00  3.270594809454E+00  5.922173746700E-02
 CE  1.881072650196E+00 -3.264236439389E+00  7.102201911400E-02
 CE  3.755930475574E+00  4.894731380000E-04  5.317452115000E-02
 CE  1.874487055819E+00  3.267183373770E+00  5.680295003600E-02
 CE  5.633885980918E+00 -3.265839171680E+00  5.979650038300E-02
 CE -3.751427083379E+00  1.189160724700E-02  5.570614727400E-02
 CE -5.629216635135E+00  3.285561222139E+00  5.806187240000E-02
 CE -1.869246122406E+00 -3.255062675948E+00  7.251068039700E-02
 O  -1.875851374065E+00  1.093347491879E+00 -7.853890392090E-01
 O  -3.753480013446E+00  4.367959408540E+00 -7.837372121940E-01
 O   1.967804095000E-03 -2.169013725206E+00 -7.791817946050E-01
 O   1.878676430695E+00  1.088362372049E+00 -7.850491258980E-01
 O  -4.479278530000E-04  4.356849025627E+00 -7.869506249750E-01
 O   3.756616234799E+00 -2.176981257709E+00 -7.837371316050E-01
 O  -5.628018873560E+00  1.099029705702E+00 -7.905490085340E-01
 O  -7.506871078239E+00  4.371219831380E+00 -7.845138873580E-01
 O  -3.745024270704E+00 -2.167526640458E+00 -7.850401759960E-01
 O   0.000000000000E+00  0.000000000000E+00 -2.343480358560E+00
 O  -1.879080259724E+00  3.267001337804E+00 -2.343480358560E+00
 O   1.879080259729E+00 -3.267001337799E+00 -2.343480358560E+00
 O   3.751726948272E+00 -3.708916161000E-03 -2.343480358560E+00
 O   1.872646688542E+00  3.263292421648E+00 -2.343480358560E+00
 O   5.630807208011E+00 -3.270710253958E+00 -2.343480358560E+00
 O  -3.751726948272E+00  3.708916152000E-03 -2.343480358560E+00
 O  -5.630807208011E+00  3.270710253958E+00 -2.343480358560E+00
 O  -1.872646688548E+00 -3.263292421643E+00 -2.343480358560E+00
 CE -1.876935736001E+00  1.090236751319E+00 -3.124640478080E+00
 CE -3.756015995720E+00  4.357238089126E+00 -3.124640478080E+00
 CE  2.144523727000E-03 -2.176764586480E+00 -3.124640478080E+00
 CE  1.874791212272E+00  1.086527835163E+00 -3.124640478080E+00
 CE -4.289047455000E-03  4.353529172968E+00 -3.124640478080E+00
 CE  3.753871472000E+00 -2.180473502639E+00 -3.124640478080E+00
 CE -5.628662684314E+00  1.093945667461E+00 -3.124640478080E+00
 CE -7.507742943999E+00  4.360947005288E+00 -3.124640478080E+00
 CE -3.749582424546E+00 -2.173055670328E+00 -3.124640478080E+00
 O   1.876935736001E+00 -1.090236751319E+00 -3.905800597599E+00
 O  -2.144523727000E-03  2.176764586480E+00 -3.905800597599E+00
 O   3.756015995720E+00 -4.357238089126E+00 -3.905800597599E+00
 O   5.628662684314E+00 -1.093945667461E+00 -3.905800597599E+00
 O   3.749582424550E+00  2.173055670328E+00 -3.905800597599E+00
 O   7.507742943999E+00 -4.360947005288E+00 -3.905800597599E+00
 O  -1.874791212272E+00 -1.086527835163E+00 -3.905800597599E+00
 O  -3.753871472003E+00  2.180473502638E+00 -3.905800597599E+00
 O   4.289047454000E-03 -4.353529172968E+00 -3.905800597599E+00
 O   1.275276231017E+01  5.854274543150E+00  5.868547319362E+00
 H   1.279512968886E+01  6.774525874246E+00  5.504040239944E+00
 O   1.485997436335E+01  2.667052276159E+00  5.954013565871E+00
 H   1.573261658976E+01  2.426385560551E+00  6.305032808179E+00
 H   1.496523831971E+01  3.584082244307E+00  5.575229892043E+00
 H   1.294953180790E+01  2.839560238110E-01  5.624969855488E+00
 O   1.282514943118E+01 -6.250396911540E-01  5.986210606709E+00
 H   1.187827101624E+01 -6.967099956150E-01  6.232075326491E+00
 O   1.493411366695E+01  6.044072934713E+00  7.153702518520E+00
 H   1.492592761025E+01  5.759003373605E+00  8.076351242239E+00
 O   1.720761254800E+01 -6.234154763620E-01  5.970748513560E+00
 H   1.713531012079E+01  2.865846282030E-01  5.572362434237E+00
 H   1.816128306140E+01 -8.079189717130E-01  6.025820315660E+00
 O   1.174938849726E+01  2.663004371007E+00  5.950630525921E+00
 H   1.271229409608E+01  2.543131311380E+00  6.067845627066E+00
 H   1.163669716509E+01  3.584957687678E+00  5.619697848247E+00
 O   9.819188284760E+00  5.872430218773E+00  5.919588370152E+00
 H   1.079339336230E+01  5.781828176857E+00  6.035683942235E+00
 H   9.668048119807E+00  6.817242671947E+00  5.677995342593E+00
 H   1.361475043380E+01  5.820228320188E+00  6.453753129278E+00
 O   1.688622100311E+01  5.168305552764E+00  5.842447873145E+00
 H   1.773091515506E+01  5.489031694600E+00  6.191848725840E+00
 H   1.608633146029E+01  5.533619970973E+00  6.435649638175E+00
 H   2.189694740947E+01 -1.896395656100E+00  5.455127598922E+00
 O   2.125771812445E+01 -1.432775077451E+00  6.068435470459E+00
 H   2.090591698430E+01 -2.193158143183E+00  6.622994929557E+00
 O   1.910759003726E+01  2.332242776712E+00  5.927479119742E+00
 H   1.998158424819E+01  1.916391697621E+00  5.754172277993E+00
 H   1.919558081962E+01  3.293977890999E+00  5.750484412013E+00
  110
CERIA BULK                              
 O  -1.849750801608E+00  1.098960173232E+00  4.065776624034E+00
 O  -3.672397107534E+00  4.373845178154E+00  4.060207351749E+00
 O   3.437309426506E-02 -2.198931835649E+00  4.002733558828E+00
 O   1.910980476276E+00  1.095108874567E+00  4.001178632829E+00
 O  -1.179387970855E-02  4.334644012484E+00  3.959284314099E+00
 O   3.752915293050E+00 -2.105595373320E+00  4.048805689104E+00
 O  -5.646781513516E+00  1.157154412182E+00  4.075912487575E+00
 O  -7.562405287200E+00  4.402331170061E+00  4.025598878259E+00
 O  -3.742448590946E+00 -2.083159267088E+00  4.052335269495E+00
 CE  1.894156100720E+00 -1.097205043626E+00  3.269464250197E+00
 CE  5.675943445462E-03  2.166012063093E+00  3.254048641210E+00
 CE  3.769000427212E+00 -4.361018636413E+00  3.272210907239E+00
 CE  5.622014350057E+00 -1.070765995226E+00  3.255795225245E+00
 CE  3.744235300852E+00  2.178144758121E+00  3.244101754133E+00
 CE  7.507816331783E+00 -4.354210881510E+00  3.257134830815E+00
 CE -1.883343417227E+00 -1.060207819212E+00  3.273411716530E+00
 CE -3.753949433636E+00  2.200334972471E+00  3.253000498598E+00
 CE  9.953838121554E-03 -4.352322673214E+00  3.314088901220E+00
 O   2.636840319476E-04 -1.539727719110E-04  2.426804529246E+00
 O  -1.887542074488E+00  3.248773982066E+00  2.399980796908E+00
 O   1.900383997778E+00 -3.273329709812E+00  2.427315676736E+00
 O   3.776371019953E+00  1.476668533548E-02  2.398118016123E+00
 O   1.880889742738E+00  3.263352133757E+00  2.400698304152E+00
 O   5.638854363071E+00 -3.238216951751E+00  2.439127581364E+00
 O  -3.758911208182E+00  4.507483989204E-02  2.425196277109E+00
 O  -5.620547843596E+00  3.299890415935E+00  2.440384291471E+00
 O  -1.882082368433E+00 -3.239742362965E+00  2.434928453788E+00
 O   1.881865153503E+00 -1.090005218263E+00  8.633135599544E-01
 O   1.709430515794E-03  2.171101938388E+00  8.523983986828E-01
 O   3.770907727359E+00 -4.356191160506E+00  8.593153602256E-01
 O   5.637699697341E+00 -1.090583222319E+00  8.524869421187E-01
 O   3.761736654268E+00  2.183303512601E+00  8.500929528641E-01
 O   7.504829183159E+00 -4.354967062366E+00  8.585322189790E-01
 O  -1.882276811466E+00 -1.073859191225E+00  8.706205713130E-01
 O  -3.766623604938E+00  2.190510122392E+00  8.460664730612E-01
 O   2.204957661382E-03 -4.343730439071E+00  8.639736469311E-01
 CE  2.406179881971E-03  7.194458242992E-04  6.237760845621E-02
 CE -1.877072936597E+00  3.270594809454E+00  5.922173746685E-02
 CE  1.881072650196E+00 -3.264236439389E+00  7.102201911360E-02
 CE  3.755930475574E+00  4.894731379904E-04  5.317452114980E-02
 CE  1.874487055819E+00  3.267183373770E+00  5.680295003649E-02
 CE  5.633885980918E+00 -3.265839171680E+00  5.979650038292E-02
 CE -3.751427083379E+00  1.189160724741E-02  5.570614727367E-02
 CE -5.629216635135E+00  3.285561222139E+00  5.806187239984E-02
 CE -1.869246122406E+00 -3.255062675948E+00  7.251068039706E-02
 O  -1.875851374065E+00  1.093347491879E+00 -7.853890392085E-01
 O  -3.753480013446E+00  4.367959408540E+00 -7.837372121943E-01
 O   1.967804094851E-03 -2.169013725206E+00 -7.791817946051E-01
 O   1.878676430695E+00  1.088362372049E+00 -7.850491258976E-01
 O  -4.479278532714E-04  4.356849025627E+00 -7.869506249746E-01
 O   3.756616234799E+00 -2.176981257709E+00 -7.837371316054E-01
 O  -5.628018873559E+00  1.099029705702E+00 -7.905490085336E-01
 O  -7.506871078239E+00  4.371219831380E+00 -7.845138873581E-01
 O  -3.745024270704E+00 -2.167526640458E+00 -7.850401759964E-01
 O   0.000000000000E+00  0.000000000000E+00 -2.343480358560E+00
 O  -1.879080259724E+00  3.267001337804E+00 -2.343480358560E+00
 O   1.879080259729E+00 -3.267001337799E+00 -2.343480358560E+00
 O   3.751726948272E+00 -3.708916160792E-03 -2.343480358560E+00
 O   1.872646688542E+00  3.263292421648E+00 -2.343480358560E+00
 O   5.630807208011E+00 -3.270710253958E+00 -2.343480358560E+00
 O  -3.751726948272E+00  3.708916151792E-03 -2.343480358560E+00
 O  -5.630807208011E+00  3.270710253958E+00 -2.343480358560E+00
 O  -1.872646688549E+00 -3.263292421643E+00 -2.343480358560E+00
 CE -1.876935736001E+00  1.090236751319E+00 -3.124640478080E+00
 CE -3.756015995720E+00  4.357238089126E+00 -3.124640478080E+00
 CE  2.144523727368E-03 -2.176764586480E+00 -3.124640478080E+00
 CE  1.874791212272E+00  1.086527835163E+00 -3.124640478080E+00
 CE -4.289047454736E-03  4.353529172968E+00 -3.124640478080E+00
 CE  3.753871472000E+00 -2.180473502639E+00 -3.124640478080E+00
 CE -5.628662684314E+00  1.093945667461E+00 -3.124640478080E+00
 CE -7.507742943999E+00  4.360947005288E+00 -3.124640478080E+00
 CE -3.749582424546E+00 -2.173055670328E+00 -3.124640478080E+00
 O   1.876935736001E+00 -1.090236751319E+00 -3.905800597599E+00
 O  -2.144523727368E-03  2.176764586480E+00 -3.905800597599E+00
 O   3.756015995720E+00 -4.357238089126E+00 -3.905800597599E+00
 O   5.628662684314E+00 -1.093945667461E+00 -3.905800597599E+00
 O   3.749582424550E+00  2.173055670328E+00 -3.905800597599E+00
 O   7.507742943999E+00 -4.360947005288E+00 -3.905800597599E+00
 O  -1.874791212272E+00 -1.086527835163E+00 -3.905800597599E+00
 O  -3.753871472003E+00  2.180473502638E+00 -3.905800597599E+00
 O   4.289047453736E-03 -4.353529172968E+00 -3.905800597599E+00
 O   1.275276231017E+01  5.854274543150E+00  5.868547319362E+00
 H   1.279512968887E+01  6.774525874246E+00  5.504040239944E+00
 O   1.485997436335E+01  2.667052276159E+00  5.954013565871E+00
 H   1.573261658976E+01  2.426385560551E+00  6.305032808180E+00
 H   1.496523831971E+01  3.584082244307E+00  5.575229892043E+00
 H   1.294953180790E+01  2.839560238112E-01  5.624969855488E+00
 O   1.282514943118E+01 -6.250396911541E-01  5.986210606709E+00
 H   1.187827101625E+01 -6.967099956147E-01  6.232075326491E+00
 O   1.493411366695E+01  6.044072934713E+00  7.153702518520E+00
 H   1.492592761025E+01  5.759003373606E+00  8.076351242239E+00
 O   1.720761254800E+01 -6.234154763619E-01  5.970748513560E+00
 H   1.713531012079E+01  2.865846282035E-01  5.572362434237E+00
 H   1.816128306140E+01 -8.079189717129E-01  6.025820315660E+00
 O   1.174938849726E+01  2.663004371007E+00  5.950630525921E+00
 H   1.271229409608E+01  2.543131311380E+00  6.067845627066E+00
 H   1.163669716509E+01  3.584957687678E+00  5.619697848247E+00
 O   9.819188284760E+00  5.872430218772E+00  5.919588370152E+00
 H   1.079339336230E+01  5.781828176857E+00  6.035683942235E+00
 H   9.668048119807E+00  6.817242671947E+00  5.677995342593E+00
 H   1.361475043380E+01  5.820228320189E+00  6.453753129278E+00
 O   1.688622100311E+01  5.168305552764E+00  5.842447873145E+00
 H   1.773091515507E+01  5.489031694601E+00  6.191848725840E+00
 H   1.608633146029E+01  5.533619970973E+00  6.435649638174E+00
 H   2.189694740947E+01 -1.896395656100E+00  5.455127598922E+00
 O   2.125771812445E+01 -1.432775077451E+00  6.068435470459E+00
 H   2.090591698430E+01 -2.193158143183E+00  6.622994929557E+00
 O   1.910759003726E+01  2.332242776712E+00  5.927479119742E+00
 H   1.998158424819E+01  1.916391697621E+00  5.754172277993E+00
 H   1.919558081962E+01  3.293977890999E+00  5.750484412013E+00
  110
CERIA BULK                               E -1.7659348709634E+04 DE 3.4E-08(  6)
 O  -1.849745794913E+00  1.098970019458E+00  4.065776851777E+00
 O  -3.672382441594E+00  4.373847563393E+00  4.060206352563E+00
 O   3.438465586359E-02 -2.198940133430E+00  4.002735623938E+00
 O   1.910983218528E+00  1.095107070553E+00  4.001180061390E+00
 O  -1.180779286632E-02  4.334644074235E+00  3.959280271012E+00
 O   3.752908931563E+00 -2.105587557711E+00  4.048810455891E+00
 O  -5.646792439123E+00  1.157166822503E+00  4.075916658122E+00
 O  -7.562399742111E+00  4.402329374527E+00  4.025597646925E+00
 O  -3.742447097517E+00 -2.083164122744E+00  4.052343925897E+00
 CE  1.894150453692E+00 -1.097190995039E+00  3.269461208998E+00
 CE  5.671574012674E-03  2.166014221511E+00  3.254049922621E+00
 CE  3.769032449278E+00 -4.360944837870E+00  3.272227253350E+00
 CE  5.622004366997E+00 -1.070764078749E+00  3.255792834136E+00
 CE  3.744242318080E+00  2.178143176232E+00  3.244096748607E+00
 CE  7.507818758505E+00 -4.354234887999E+00  3.257127560150E+00
 CE -1.883348931023E+00 -1.060193243768E+00  3.273410228058E+00
 CE -3.753946678512E+00  2.200195300396E+00  3.253003388814E+00
 CE  9.911648839549E-03 -4.352257070172E+00  3.314079505917E+00
 O   2.587023868893E-04 -1.579808505783E-04  2.426813633205E+00
 O  -1.887545700130E+00  3.248780081517E+00  2.399977766968E+00
 O   1.900383939945E+00 -3.273354678515E+00  2.427308799956E+00
 O   3.776379726210E+00  1.475562325998E-02  2.398118286989E+00
 O   1.880881884886E+00  3.263358280585E+00  2.400703924304E+00
 O   5.638862105988E+00 -3.238219954048E+00  2.439123196371E+00
 O  -3.758909713749E+00  4.507436508224E-02  2.425187714351E+00
 O  -5.620545396645E+00  3.299899785606E+00  2.440379601136E+00
 O  -1.882082093032E+00 -3.239736450930E+00  2.434930751653E+00
 O   1.881858065842E+00 -1.090002323883E+00  8.633126583288E-01
 O   1.709858413030E-03  2.171103792202E+00  8.523930217330E-01
 O   3.770899803382E+00 -4.356198108831E+00  8.593109901340E-01
 O   5.637697656381E+00 -1.090582894570E+00  8.524818338226E-01
 O   3.761734962578E+00  2.183301675545E+00  8.500920530281E-01
 O   7.504827046912E+00 -4.354973165808E+00  8.585364867282E-01
 O  -1.882265752949E+00 -1.073858837168E+00  8.706201149272E-01
 O  -3.766623296368E+00  2.190520961888E+00  8.460584749698E-01
 O   2.209340376585E-03 -4.343738376189E+00  8.639736762747E-01
 CE  2.401054115998E-03  7.190088182527E-04  6.238054768477E-02
 CE -1.877075026754E+00  3.270597509883E+00  5.922955069028E-02
 CE  1.881160511536E+00 -3.264251330459E+00  7.102049845992E-02
 CE  3.755929783424E+00  4.872688613734E-04  5.317510646300E-02
 CE  1.874567266877E+00  3.267180316383E+00  5.680421552287E-02
 CE  5.633887557176E+00 -3.265840945532E+00  5.979860188446E-02
 CE -3.751421740739E+00  1.189968627116E-02  5.570548958049E-02
 CE -5.629295569785E+00  3.285568018277E+00  5.806465601181E-02
 CE -1.869330947039E+00 -3.255060194052E+00  7.251000531085E-02
 O  -1.875851812620E+00  1.093342842157E+00 -7.853889244265E-01
 O  -3.753485500498E+00  4.367969261819E+00 -7.837314663879E-01
 O   1.968298239393E-03 -2.169010210852E+00 -7.791871052494E-01
 O   1.878670967830E+00  1.088362647448E+00 -7.850495852640E-01
 O  -4.498018597610E-04  4.356847824146E+00 -7.869498973838E-01
 O   3.756610337881E+00 -2.176978287317E+00 -7.837373890778E-01
 O  -5.628013697057E+00  1.099031648892E+00 -7.905484199447E-01
 O  -7.506861215921E+00  4.371218155810E+00 -7.845123757254E-01
 O  -3.745018972755E+00 -2.167526849167E+00 -7.850398581028E-01
 O   0.000000000000E+00  0.000000000000E+00 -2.343480358560E+00
 O  -1.879080260956E+00  3.267001493061E+00 -2.343480358560E+00
 O   1.879080260961E+00 -3.267001493056E+00 -2.343480358560E+00
 O   3.751727030637E+00 -3.708870379088E-03 -2.343480358560E+00
 O   1.872646769674E+00  3.263292622687E+00 -2.343480358560E+00
 O   5.630807291608E+00 -3.270710363434E+00 -2.343480358560E+00
 O  -3.751727030637E+00  3.708870370088E-03 -2.343480358560E+00
 O  -5.630807291608E+00  3.270710363434E+00 -2.343480358560E+00
 O  -1.872646769680E+00 -3.263292622682E+00 -2.343480358560E+00
 CE -1.876935763867E+00  1.090236787811E+00 -3.124640478080E+00
 CE -3.756016024818E+00  4.357238280875E+00 -3.124640478080E+00
 CE  2.144497094339E-03 -2.176764705246E+00 -3.124640478080E+00
 CE  1.874791266771E+00  1.086527917436E+00 -3.124640478080E+00
 CE -4.288994188678E-03  4.353529410499E+00 -3.124640478080E+00
 CE  3.753871527732E+00 -2.180473575623E+00 -3.124640478080E+00
 CE -5.628662794544E+00  1.093945658171E+00 -3.124640478080E+00
 CE -7.507743055462E+00  4.360947151255E+00 -3.124640478080E+00
 CE -3.749582533543E+00 -2.173055834876E+00 -3.124640478080E+00
 O   1.876935763867E+00 -1.090236787811E+00 -3.905800597599E+00
 O  -2.144497094339E-03  2.176764705246E+00 -3.905800597599E+00
 O   3.756016024818E+00 -4.357238280875E+00 -3.905800597599E+00
 O   5.628662794544E+00 -1.093945658171E+00 -3.905800597599E+00
 O   3.749582533547E+00  2.173055834876E+00 -3.905800597599E+00
 O   7.507743055462E+00 -4.360947151255E+00 -3.905800597599E+00
 O  -1.874791266771E+00 -1.086527917436E+00 -3.905800597599E+00
 O  -3.753871527735E+00  2.180473575622E+00 -3.905800597599E+00
 O   4.288994187678E-03 -4.353529410499E+00 -3.905800597599E+00
 O   1.275276971098E+01  5.854277819200E+00  5.868540422484E+00
 H   1.279512656615E+01  6.774520916769E+00  5.504042758150E+00
 O   1.485997432063E+01  2.667050880245E+00  5.954016067554E+00
 H   1.573261749000E+01  2.426387045359E+00  6.305034840174E+00
 H   1.496523638678E+01  3.584082367714E+00  5.575224763591E+00
 H   1.294953189041E+01  2.839545106107E-01  5.624968403379E+00
 O   1.282514967036E+01 -6.250398919180E-01  5.986211950242E+00
 H   1.187827085876E+01 -6.967095697845E-01  6.232072943906E+00
 O   1.493411292028E+01  6.044079774137E+00  7.153696750765E+00
 H   1.492592793888E+01  5.759004653586E+00  8.076353180757E+00
 O   1.720761286490E+01 -6.234148612462E-01  5.970746247634E+00
 H   1.713531115329E+01  2.865820984131E-01  5.572364360814E+00
 H   1.816128387262E+01 -8.079171796826E-01  6.025820700908E+00
 O   1.174938908240E+01  2.663002328484E+00  5.950631373308E+00
 H   1.271229564531E+01  2.543131257164E+00  6.067845475682E+00
 H   1.163669748634E+01  3.584961222853E+00  5.619700711068E+00
 O   9.819185823127E+00  5.872431061448E+00  5.919589141010E+00
 H   1.079339654329E+01  5.781827566285E+00  6.035687014271E+00
 H   9.668049101763E+00  6.817242480973E+00  5.677994125946E+00
 H   1.361474561554E+01  5.820227034565E+00  6.453760110997E+00
 O   1.688621706794E+01  5.168307100592E+00  5.842456445584E+00
 H   1.773091529892E+01  5.489031112239E+00  6.191849949414E+00
 H   1.608633929378E+01  5.533618013646E+00  6.435643887706E+00
 H   2.189695368561E+01 -1.896396644205E+00  5.455128339726E+00
 O   2.125771651109E+01 -1.432768702458E+00  6.068430205072E+00
 H   2.090591394807E+01 -2.193163745361E+00  6.623000791808E+00
 O   1.910759350133E+01  2.332244519589E+00  5.927477832617E+00
 H   1.998158118940E+01  1.916396480425E+00  5.754171764618E+00
 H   1.919558053964E+01  3.293978199828E+00  5.750481541248E+00
  110
CERIA BULK                               E -1.7659348710568E+04 DE-7.0E-09(  3)
 O  -1.849745794913E+00  1.098970019458E+00  4.065776851777E+00
 O  -3.672382441594E+00  4.373847563393E+00  4.060206352563E+00
 O   3.438465586359E-02 -2.198940133430E+00  4.002735623938E+00
 O   1.910983218528E+00  1.095107070553E+00  4.001180061390E+00
 O  -1.180779286632E-02  4.334644074235E+00  3.959280271012E+00
 O   3.752908931563E+00 -2.105587557711E+00  4.048810455891E+00
 O  -5.646792439123E+00  1.157166822503E+00  4.075916658122E+00
 O  -7.562399742111E+00  4.402329374527E+00  4.025597646925E+00
 O  -3.742447097517E+00 -2.083164122744E+00  4.052343925897E+00
 CE  1.894150453692E+00 -1.097190995039E+00  3.269461208998E+00
 CE  5.671574012674E-03  2.166014221511E+00  3.254049922621E+00
 CE  3.769032449278E+00 -4.360944837870E+00  3.272227253350E+00
 CE  5.622004366997E+00 -1.070764078749E+00  3.255792834136E+00
 CE  3.744242318080E+00  2.178143176232E+00  3.244096748607E+00
 CE  7.507818758505E+00 -4.354234887999E+00  3.257127560150E+00
 CE -1.883348931023E+00 -1.060193243768E+00  3.273410228058E+00
 CE -3.753946678512E+00  2.200195300396E+00  3.253003388814E+00
 CE  9.911648839549E-03 -4.352257070172E+00  3.314079505917E+00
 O   2.587023868893E-04 -1.579808505783E-04  2.426813633205E+00
 O  -1.887545700130E+00  3.248780081517E+00  2.399977766968E+00
 O   1.900383939945E+00 -3.273354678515E+00  2.427308799956E+00
 O   3.776379726210E+00  1.475562325998E-02  2.398118286989E+00
 O   1.880881884886E+00  3.263358280585E+00  2.400703924304E+00
 O   5.638862105988E+00 -3.238219954048E+00  2.439123196371E+00
 O  -3.758909713749E+00  4.507436508224E-02  2.425187714351E+00
 O  -5.620545396645E+00  3.299899785606E+00  2.440379601136E+00
 O  -1.882082093032E+00 -3.239736450930E+00  2.434930751653E+00
 O   1.881858065842E+00 -1.090002323883E+00  8.633126583288E-01
 O   1.709858413030E-03  2.171103792202E+00  8.523930217330E-01
 O   3.770899803382E+00 -4.356198108831E+00  8.593109901340E-01
 O   5.637697656381E+00 -1.090582894570E+00  8.524818338226E-01
 O   3.761734962578E+00  2.183301675545E+00  8.500920530281E-01
 O   7.504827046912E+00 -4.354973165808E+00  8.585364867282E-01
 O  -1.882265752949E+00 -1.073858837168E+00  8.706201149272E-01
 O  -3.766623296368E+00  2.190520961888E+00  8.460584749698E-01
 O   2.209340376585E-03 -4.343738376189E+00  8.639736762747E-01
 CE  2.401054115998E-03  7.190088182527E-04  6.238054768477E-02
 CE -1.877075026754E+00  3.270597509883E+00  5.922955069028E-02
 CE  1.881160511536E+00 -3.264251330459E+00  7.102049845992E-02
 CE  3.755929783424E+00  4.872688613734E-04  5.317510646300E-02
 CE  1.874567266877E+00  3.267180316383E+00  5.680421552287E-02
 CE  5.633887557176E+00 -3.265840945532E+00  5.979860188446E-02
 CE -3.751421740739E+00  1.189968627116E-02  5.570548958049E-02
 CE -5.629295569785E+00  3.285568018277E+00  5.806465601181E-02
 CE -1.869330947039E+00 -3.255060194052E+00  7.251000531085E-02
 O  -1.875851812620E+00  1.093342842157E+00 -7.853889244265E-01
 O  -3.753485500498E+00  4.367969261819E+00 -7.837314663879E-01
 O   1.968298239393E-03 -2.169010210852E+00 -7.791871052494E-01
 O   1.878670967830E+00  1.088362647448E+00 -7.850495852640E-01
 O  -4.498018597610E-04  4.356847824146E+00 -7.869498973838E-01
 O   3.756610337881E+00 -2.176978287317E+00 -7.837373890778E-01
 O  -5.628013697057E+00  1.099031648892E+00 -7.905484199447E-01
 O  -7.506861215921E+00  4.371218155810E+00 -7.845123757254E-01
 O  -3.745018972755E+00 -2.167526849167E+00 -7.850398581028E-01
 O   0.000000000000E+00  0.000000000000E+00 -2.343480358560E+00
 O  -1.879080260956E+00  3.267001493061E+00 -2.343480358560E+00
 O   1.879080260961E+00 -3.267001493056E+00 -2.343480358560E+00
 O   3.751727030637E+00 -3.708870379088E-03 -2.343480358560E+00
 O   1.872646769674E+00  3.263292622687E+00 -2.343480358560E+00
 O   5.630807291608E+00 -3.270710363434E+00 -2.343480358560E+00
 O  -3.751727030637E+00  3.708870370088E-03 -2.343480358560E+00
 O  -5.630807291608E+00  3.270710363434E+00 -2.343480358560E+00
 O  -1.872646769680E+00 -3.263292622682E+00 -2.343480358560E+00
 CE -1.876935763867E+00  1.090236787811E+00 -3.124640478080E+00
 CE -3.756016024818E+00  4.357238280875E+00 -3.124640478080E+00
 CE  2.144497094339E-03 -2.176764705246E+00 -3.124640478080E+00
 CE  1.874791266771E+00  1.086527917436E+00 -3.124640478080E+00
 CE -4.288994188678E-03  4.353529410499E+00 -3.124640478080E+00
 CE  3.753871527732E+00 -2.180473575623E+00 -3.124640478080E+00
 CE -5.628662794544E+00  1.093945658171E+00 -3.124640478080E+00
 CE -7.507743055462E+00  4.360947151255E+00 -3.124640478080E+00
 CE -3.749582533543E+00 -2.173055834876E+00 -3.124640478080E+00
 O   1.876935763867E+00 -1.090236787811E+00 -3.905800597599E+00
 O  -2.144497094339E-03  2.176764705246E+00 -3.905800597599E+00
 O   3.756016024818E+00 -4.357238280875E+00 -3.905800597599E+00
 O   5.628662794544E+00 -1.093945658171E+00 -3.905800597599E+00
 O   3.749582533547E+00  2.173055834876E+00 -3.905800597599E+00
 O   7.507743055462E+00 -4.360947151255E+00 -3.905800597599E+00
 O  -1.874791266771E+00 -1.086527917436E+00 -3.905800597599E+00
 O  -3.753871527735E+00  2.180473575622E+00 -3.905800597599E+00
 O   4.288994187678E-03 -4.353529410499E+00 -3.905800597599E+00
 O   1.275276971098E+01  5.854277819200E+00  5.868540422484E+00
 H   1.279512656615E+01  6.774520916769E+00  5.504042758150E+00
 O   1.485997432063E+01  2.667050880245E+00  5.954016067554E+00
 H   1.573261749000E+01  2.426387045359E+00  6.305034840174E+00
 H   1.496523638678E+01  3.584082367714E+00  5.575224763591E+00
 H   1.294953189041E+01  2.839545106107E-01  5.624968403379E+00
 O   1.282514967036E+01 -6.250398919180E-01  5.986211950242E+00
 H   1.187827085876E+01 -6.967095697845E-01  6.232072943906E+00
 O   1.493411292028E+01  6.044079774137E+00  7.153696750765E+00
 H   1.492592793888E+01  5.759004653586E+00  8.076353180757E+00
 O   1.720761286490E+01 -6.234148612462E-01  5.970746247634E+00
 H   1.713531115329E+01  2.865820984131E-01  5.572364360814E+00
 H   1.816128387262E+01 -8.079171796826E-01  6.025820700908E+00
 O   1.174938908240E+01  2.663002328484E+00  5.950631373308E+00
 H   1.271229564531E+01  2.543131257164E+00  6.067845475682E+00
 H   1.163669748634E+01  3.584961222853E+00  5.619700711068E+00
 O   9.819185823127E+00  5.872431061448E+00  5.919589141010E+00
 H   1.079339654329E+01  5.781827566285E+00  6.035687014271E+00
 H   9.668049101763E+00  6.817242480973E+00  5.677994125946E+00
 H   1.361474561554E+01  5.820227034565E+00  6.453760110997E+00
 O   1.688621706794E+01  5.168307100592E+00  5.842456445584E+00
 H   1.773091529892E+01  5.489031112239E+00  6.191849949414E+00
 H   1.608633929378E+01  5.533618013646E+00  6.435643887706E+00
 H   2.189695368561E+01 -1.896396644205E+00  5.455128339726E+00
 O   2.125771651109E+01 -1.432768702458E+00  6.068430205072E+00
 H   2.090591394807E+01 -2.193163745361E+00  6.623000791808E+00
 O   1.910759350133E+01  2.332244519589E+00  5.927477832617E+00
 H   1.998158118940E+01  1.916396480425E+00  5.754171764618E+00
 H   1.919558053964E+01  3.293978199828E+00  5.750481541248E+00
