  112
Ceria bulk                              
 O  -1.945878391210E+00  1.039921959821E+00  4.118204458704E+00
 O  -3.823887991255E+00  4.281243572691E+00  3.997856817120E+00
 O  -5.013727683000E-02 -2.106567980621E+00  3.870944966684E+00
 O   1.922561411998E+00  1.106390330122E+00  4.020814871460E+00
 O   7.618396010900E-02  4.367912201186E+00  4.066863890003E+00
 O   3.824204186295E+00 -2.228085319553E+00  4.146117486077E+00
 O  -5.666396030280E+00  1.138538036148E+00  4.107512135873E+00
 O  -7.532623431347E+00  4.259490311369E+00  4.323775761983E+00
 O  -3.764486935214E+00 -2.224980581115E+00  4.063725785517E+00
 CE  1.864156116070E+00 -1.069404719542E+00  3.274932208581E+00
 CE  1.391096521800E-02  2.173488782787E+00  3.266289335442E+00
 CE  3.758706232643E+00 -4.344277819583E+00  3.312081525925E+00
 CE  5.640300539008E+00 -1.099991413788E+00  3.320690560365E+00
 CE  3.743191374985E+00  2.107349478050E+00  3.166050016675E+00
 CE  7.482138980197E+00 -4.298321912293E+00  3.167248839539E+00
 CE -1.884895266716E+00 -1.067458705839E+00  3.234023219167E+00
 CE -3.771525410895E+00  2.163829845226E+00  3.222894239433E+00
 CE  4.298164057100E-02 -4.305191166139E+00  3.269959964794E+00
 O  -1.235695201200E-02  7.517461082400E-02  2.438713667540E+00
 O  -1.850074084536E+00  3.236205522437E+00  2.483366562648E+00
 O   1.915238852312E+00 -3.243512619409E+00  2.492116501420E+00
 O   3.782559609852E+00 -4.737701087100E-02  2.460510298838E+00
 O   1.930988390964E+00  3.283485065153E+00  2.424010846641E+00
 O   5.624018711203E+00 -3.236323786608E+00  2.434242821934E+00
 O  -3.799074355514E+00 -9.988064046000E-03  2.454063757087E+00
 O  -5.737987589944E+00  3.275555999195E+00  2.429786005848E+00
 O  -1.898459840026E+00 -3.358633200563E+00  2.450440711416E+00
 O   1.867538303227E+00 -1.079743717159E+00  8.958199841010E-01
 O   1.571610851900E-02  2.196198166728E+00  8.746150110090E-01
 O   3.750098934610E+00 -4.345053689980E+00  8.950313828010E-01
 O   5.640042316835E+00 -1.082349302150E+00  8.717712952490E-01
 O   3.751598710041E+00  2.128415842517E+00  8.650530685140E-01
 O   7.495679355784E+00 -4.316958845333E+00  8.552338697870E-01
 O  -1.884198677140E+00 -1.104421859038E+00  9.126296881230E-01
 O  -3.769929809882E+00  2.179252085308E+00  9.156466452920E-01
 O   2.828073005600E-02 -4.315379069264E+00  8.857027904900E-01
 CE -1.981532900000E-05  6.467282872000E-03  4.666160843800E-02
 CE -1.873819587924E+00  3.257664735282E+00  4.885882041800E-02
 CE  1.877896638754E+00 -3.250892199622E+00  5.360072908000E-02
 CE  3.762049587256E+00 -1.502783500400E-02  3.409146834000E-02
 CE  1.876698596683E+00  3.251010769463E+00  2.230768153000E-02
 CE  5.625368685947E+00 -3.241528385135E+00  3.732617012300E-02
 CE -3.773367805344E+00 -1.243333641600E-02  4.661017843500E-02
 CE -5.637796640725E+00  3.250723492012E+00  4.039182057900E-02
 CE -1.876736188071E+00 -3.253568163151E+00  3.848670759700E-02
 O  -1.887825353154E+00  1.079796442976E+00 -7.280683438710E-01
 O  -3.757094820895E+00  4.326169550150E+00 -7.469668353940E-01
 O  -7.395727733000E-03 -2.161817375774E+00 -7.459658037790E-01
 O   1.874275334908E+00  1.078790845194E+00 -7.536361163600E-01
 O  -3.013744409000E-03  4.338010341022E+00 -7.573604892510E-01
 O   3.748865833113E+00 -2.168808759368E+00 -7.494552425810E-01
 O  -5.634026497976E+00  1.080178633910E+00 -7.455257945410E-01
 O  -7.511006200757E+00  4.326647495941E+00 -7.352765267370E-01
 O  -3.756684775185E+00 -2.166845487863E+00 -7.486797510710E-01
 O   0.000000000000E+00  0.000000000000E+00 -2.343480358560E+00
 O  -1.876734245879E+00  3.249874549855E+00 -2.343480358560E+00
 O   1.876734245884E+00 -3.249874549850E+00 -2.343480358560E+00
 O   3.761008509239E+00  4.386814969000E-03 -2.343480358560E+00
 O   1.884274263356E+00  3.254261364828E+00 -2.343480358560E+00
 O   5.637742755133E+00 -3.245487734882E+00 -2.343480358560E+00
 O  -3.761008509239E+00 -4.386814978000E-03 -2.343480358560E+00
 O  -5.637742755133E+00  3.245487734882E+00 -2.343480358560E+00
 O  -1.884274263361E+00 -3.254261364824E+00 -2.343480358560E+00
 CE -1.879247585040E+00  1.081829244961E+00 -3.124640478080E+00
 CE -3.755981830915E+00  4.331703794821E+00 -3.124640478080E+00
 CE -2.513339158000E-03 -2.168045304893E+00 -3.124640478080E+00
 CE  1.881760924199E+00  1.086216059932E+00 -3.124640478080E+00
 CE  5.026678317000E-03  4.336090609790E+00 -3.124640478080E+00
 CE  3.758495170083E+00 -2.163658489921E+00 -3.124640478080E+00
 CE -5.640256094325E+00  1.077442429976E+00 -3.124640478080E+00
 CE -7.516990340163E+00  4.327316979852E+00 -3.124640478080E+00
 CE -3.763521848400E+00 -2.172432119868E+00 -3.124640478080E+00
 O   1.879247585040E+00 -1.081829244961E+00 -3.905800597599E+00
 O   2.513339158000E-03  2.168045304893E+00 -3.905800597599E+00
 O   3.755981830915E+00 -4.331703794821E+00 -3.905800597599E+00
 O   5.640256094325E+00 -1.077442429976E+00 -3.905800597599E+00
 O   3.763521848404E+00  2.172432119869E+00 -3.905800597599E+00
 O   7.516990340163E+00 -4.327316979852E+00 -3.905800597599E+00
 O  -1.881760924199E+00 -1.086216059932E+00 -3.905800597599E+00
 O  -3.758495170085E+00  2.163658489921E+00 -3.905800597599E+00
 O  -5.026678318000E-03 -4.336090609790E+00 -3.905800597599E+00
 O   5.152268747400E-02 -3.855264159387E+00  5.869716200427E+00
 H  -7.428227149500E-01 -3.347830113982E+00  6.156995046711E+00
 H  -5.343298004677E+00  5.149739855337E+00  6.489078143049E+00
 H  -7.713043511370E+00  4.384196808453E+00  5.270683283125E+00
 O   2.336022139543E+00  2.365356645917E+00  7.108179446924E+00
 H   2.270782686361E+00  2.260742064509E+00  8.072920479071E+00
 H   2.093771527577E+00  3.305165702356E+00  6.911911605364E+00
 O   5.637801329709E+00 -1.109038043230E+00  6.018131849202E+00
 H   5.439296707469E+00 -2.518202768170E-01  6.462808991979E+00
 H   4.850062972307E+00 -1.669612708089E+00  6.122851323195E+00
 O  -6.152747754830E+00  1.626177030794E+00  6.618458423830E+00
 H  -5.988749839442E+00  1.475876826921E+00  5.631189918703E+00
 H  -7.108267413724E+00  1.823137787148E+00  6.755794750163E+00
 H   7.970674973410E-01  4.598559610166E+00  5.525797444032E+00
 O   1.567657418326E+00  4.839667529345E+00  6.134122735059E+00
 H   6.914508612904E+00 -4.174918721389E+00  6.700947329015E+00
 H  -4.403781699507E+00  3.814223153603E+00  8.114625655094E+00
 O  -4.585189288519E+00  3.775257319031E+00  7.160779627992E+00
 H  -5.147842727477E+00  2.960142774635E+00  7.011927728649E+00
 H  -2.422829576480E+00 -1.595324992311E+00  6.913635257194E+00
 O  -2.174163858232E+00 -2.091058558454E+00  6.118533017775E+00
 H  -2.999643790148E+00 -2.202598671763E+00  5.561659370379E+00
 H  -1.350876498834E+00  3.987969819240E+00  6.054998289713E+00
 O   3.681673824633E+00 -4.998509897148E+00  5.925147819119E+00
 H  -2.849181180559E+00  4.430420312284E+00  6.146111291144E+00
 H   2.731244824809E+00 -2.108198147689E+00  5.634822262291E+00
 H   1.206042851069E+00 -2.366625486404E+00  5.931981779490E+00
 O   1.877793342703E+00 -1.654312121457E+00  5.815180181589E+00
 O  -2.650561897650E-01  2.142166021176E+00  5.886313131655E+00
 H  -9.153604986630E-01  1.413195868106E+00  5.796804543307E+00
 H   5.557707374100E-01  1.842779056167E+00  6.338843426630E+00
  112
Ceria bulk                              
 O  -1.945878391210E+00  1.039921959821E+00  4.118204458704E+00
 O  -3.823887991255E+00  4.281243572691E+00  3.997856817120E+00
 O  -5.013727683047E-02 -2.106567980621E+00  3.870944966684E+00
 O   1.922561411998E+00  1.106390330122E+00  4.020814871460E+00
 O   7.618396010869E-02  4.367912201186E+00  4.066863890003E+00
 O   3.824204186295E+00 -2.228085319553E+00  4.146117486077E+00
 O  -5.666396030280E+00  1.138538036148E+00  4.107512135873E+00
 O  -7.532623431347E+00  4.259490311368E+00  4.323775761983E+00
 O  -3.764486935214E+00 -2.224980581115E+00  4.063725785517E+00
 CE  1.864156116070E+00 -1.069404719542E+00  3.274932208581E+00
 CE  1.391096521800E-02  2.173488782787E+00  3.266289335442E+00
 CE  3.758706232643E+00 -4.344277819583E+00  3.312081525925E+00
 CE  5.640300539008E+00 -1.099991413788E+00  3.320690560365E+00
 CE  3.743191374985E+00  2.107349478050E+00  3.166050016675E+00
 CE  7.482138980197E+00 -4.298321912293E+00  3.167248839539E+00
 CE -1.884895266716E+00 -1.067458705839E+00  3.234023219167E+00
 CE -3.771525410895E+00  2.163829845226E+00  3.222894239433E+00
 CE  4.298164057097E-02 -4.305191166139E+00  3.269959964794E+00
 O  -1.235695201228E-02  7.517461082434E-02  2.438713667540E+00
 O  -1.850074084536E+00  3.236205522437E+00  2.483366562648E+00
 O   1.915238852312E+00 -3.243512619409E+00  2.492116501420E+00
 O   3.782559609852E+00 -4.737701087137E-02  2.460510298838E+00
 O   1.930988390964E+00  3.283485065153E+00  2.424010846641E+00
 O   5.624018711203E+00 -3.236323786608E+00  2.434242821934E+00
 O  -3.799074355514E+00 -9.988064045642E-03  2.454063757087E+00
 O  -5.737987589944E+00  3.275555999195E+00  2.429786005848E+00
 O  -1.898459840026E+00 -3.358633200563E+00  2.450440711416E+00
 O   1.867538303227E+00 -1.079743717159E+00  8.958199841011E-01
 O   1.571610851861E-02  2.196198166728E+00  8.746150110094E-01
 O   3.750098934610E+00 -4.345053689980E+00  8.950313828010E-01
 O   5.640042316835E+00 -1.082349302150E+00  8.717712952490E-01
 O   3.751598710041E+00  2.128415842517E+00  8.650530685144E-01
 O   7.495679355783E+00 -4.316958845333E+00  8.552338697867E-01
 O  -1.884198677140E+00 -1.104421859038E+00  9.126296881234E-01
 O  -3.769929809882E+00  2.179252085308E+00  9.156466452924E-01
 O   2.828073005608E-02 -4.315379069264E+00  8.857027904904E-01
 CE -1.981532896437E-05  6.467282872154E-03  4.666160843751E-02
 CE -1.873819587924E+00  3.257664735282E+00  4.885882041786E-02
 CE  1.877896638754E+00 -3.250892199622E+00  5.360072907978E-02
 CE  3.762049587256E+00 -1.502783500364E-02  3.409146833979E-02
 CE  1.876698596683E+00  3.251010769463E+00  2.230768152966E-02
 CE  5.625368685947E+00 -3.241528385135E+00  3.732617012298E-02
 CE -3.773367805344E+00 -1.243333641612E-02  4.661017843522E-02
 CE -5.637796640725E+00  3.250723492012E+00  4.039182057921E-02
 CE -1.876736188071E+00 -3.253568163151E+00  3.848670759744E-02
 O  -1.887825353154E+00  1.079796442976E+00 -7.280683438706E-01
 O  -3.757094820895E+00  4.326169550150E+00 -7.469668353944E-01
 O  -7.395727733016E-03 -2.161817375774E+00 -7.459658037793E-01
 O   1.874275334908E+00  1.078790845194E+00 -7.536361163596E-01
 O  -3.013744408901E-03  4.338010341022E+00 -7.573604892508E-01
 O   3.748865833113E+00 -2.168808759368E+00 -7.494552425810E-01
 O  -5.634026497976E+00  1.080178633910E+00 -7.455257945414E-01
 O  -7.511006200757E+00  4.326647495941E+00 -7.352765267374E-01
 O  -3.756684775185E+00 -2.166845487863E+00 -7.486797510708E-01
 O   0.000000000000E+00  0.000000000000E+00 -2.343480358560E+00
 O  -1.876734245879E+00  3.249874549855E+00 -2.343480358560E+00
 O   1.876734245884E+00 -3.249874549850E+00 -2.343480358560E+00
 O   3.761008509239E+00  4.386814968521E-03 -2.343480358560E+00
 O   1.884274263356E+00  3.254261364828E+00 -2.343480358560E+00
 O   5.637742755133E+00 -3.245487734882E+00 -2.343480358560E+00
 O  -3.761008509239E+00 -4.386814977521E-03 -2.343480358560E+00
 O  -5.637742755133E+00  3.245487734882E+00 -2.343480358560E+00
 O  -1.884274263361E+00 -3.254261364824E+00 -2.343480358560E+00
 CE -1.879247585040E+00  1.081829244961E+00 -3.124640478080E+00
 CE -3.755981830915E+00  4.331703794821E+00 -3.124640478080E+00
 CE -2.513339157611E-03 -2.168045304893E+00 -3.124640478080E+00
 CE  1.881760924199E+00  1.086216059932E+00 -3.124640478080E+00
 CE  5.026678317222E-03  4.336090609790E+00 -3.124640478080E+00
 CE  3.758495170083E+00 -2.163658489921E+00 -3.124640478080E+00
 CE -5.640256094325E+00  1.077442429976E+00 -3.124640478080E+00
 CE -7.516990340163E+00  4.327316979852E+00 -3.124640478080E+00
 CE -3.763521848400E+00 -2.172432119868E+00 -3.124640478080E+00
 O   1.879247585040E+00 -1.081829244961E+00 -3.905800597599E+00
 O   2.513339157611E-03  2.168045304893E+00 -3.905800597599E+00
 O   3.755981830915E+00 -4.331703794821E+00 -3.905800597599E+00
 O   5.640256094325E+00 -1.077442429976E+00 -3.905800597599E+00
 O   3.763521848404E+00  2.172432119869E+00 -3.905800597599E+00
 O   7.516990340163E+00 -4.327316979852E+00 -3.905800597599E+00
 O  -1.881760924199E+00 -1.086216059932E+00 -3.905800597599E+00
 O  -3.758495170085E+00  2.163658489921E+00 -3.905800597599E+00
 O  -5.026678318223E-03 -4.336090609790E+00 -3.905800597599E+00
 O   5.152268747360E-02 -3.855264159387E+00  5.869716200427E+00
 H  -7.428227149501E-01 -3.347830113982E+00  6.156995046711E+00
 H  -5.343298004677E+00  5.149739855337E+00  6.489078143049E+00
 H  -7.713043511370E+00  4.384196808453E+00  5.270683283125E+00
 O   2.336022139543E+00  2.365356645917E+00  7.108179446924E+00
 H   2.270782686361E+00  2.260742064509E+00  8.072920479071E+00
 H   2.093771527577E+00  3.305165702356E+00  6.911911605364E+00
 O   5.637801329709E+00 -1.109038043230E+00  6.018131849203E+00
 H   5.439296707468E+00 -2.518202768171E-01  6.462808991978E+00
 H   4.850062972307E+00 -1.669612708089E+00  6.122851323195E+00
 O  -6.152747754830E+00  1.626177030794E+00  6.618458423830E+00
 H  -5.988749839442E+00  1.475876826921E+00  5.631189918703E+00
 H  -7.108267413723E+00  1.823137787148E+00  6.755794750163E+00
 H   7.970674973409E-01  4.598559610166E+00  5.525797444032E+00
 O   1.567657418326E+00  4.839667529345E+00  6.134122735059E+00
 H   6.914508612904E+00 -4.174918721389E+00  6.700947329015E+00
 H  -4.403781699507E+00  3.814223153603E+00  8.114625655094E+00
 O  -4.585189288519E+00  3.775257319031E+00  7.160779627992E+00
 H  -5.147842727477E+00  2.960142774635E+00  7.011927728649E+00
 H  -2.422829576480E+00 -1.595324992311E+00  6.913635257194E+00
 O  -2.174163858232E+00 -2.091058558454E+00  6.118533017775E+00
 H  -2.999643790148E+00 -2.202598671763E+00  5.561659370379E+00
 H  -1.350876498834E+00  3.987969819240E+00  6.054998289713E+00
 O   3.681673824633E+00 -4.998509897148E+00  5.925147819119E+00
 H  -2.849181180559E+00  4.430420312284E+00  6.146111291144E+00
 H   2.731244824809E+00 -2.108198147689E+00  5.634822262291E+00
 H   1.206042851069E+00 -2.366625486404E+00  5.931981779491E+00
 O   1.877793342703E+00 -1.654312121457E+00  5.815180181589E+00
 O  -2.650561897651E-01  2.142166021176E+00  5.886313131655E+00
 H  -9.153604986625E-01  1.413195868106E+00  5.796804543307E+00
 H   5.557707374101E-01  1.842779056167E+00  6.338843426630E+00
  112
Ceria bulk                               E -1.7660271003742E+04 DE 4.1E-08(  5)
 O  -1.945874710049E+00  1.039893120906E+00  4.118179898602E+00
 O  -3.823982228623E+00  4.281223315293E+00  3.997828821695E+00
 O  -5.015921636935E-02 -2.106578136934E+00  3.870951350670E+00
 O   1.922565262683E+00  1.106401152823E+00  4.020807344198E+00
 O   7.619298439917E-02  4.367897547880E+00  4.066856238237E+00
 O   3.824179159848E+00 -2.228119370699E+00  4.146200764277E+00
 O  -5.666423688246E+00  1.138557825085E+00  4.107505473690E+00
 O  -7.532714559914E+00  4.259517672252E+00  4.323730194607E+00
 O  -3.764491694591E+00 -2.225003798106E+00  4.063732894242E+00
 CE  1.864153427218E+00 -1.069409027761E+00  3.274938570403E+00
 CE  1.391076046802E-02  2.173489149940E+00  3.266278994238E+00
 CE  3.758624677872E+00 -4.344353041419E+00  3.312081909588E+00
 CE  5.640326449880E+00 -1.099985396123E+00  3.320717393908E+00
 CE  3.743179841102E+00  2.107346397617E+00  3.166037589304E+00
 CE  7.482119959020E+00 -4.298349165530E+00  3.167230367453E+00
 CE -1.884901987290E+00 -1.067484300382E+00  3.234001195925E+00
 CE -3.771519957906E+00  2.163778272735E+00  3.222897718947E+00
 CE  4.290486622185E-02 -4.305157994864E+00  3.269923978289E+00
 O  -1.235279536869E-02  7.517341687670E-02  2.438718152998E+00
 O  -1.850085430369E+00  3.236193157609E+00  2.483389417435E+00
 O   1.915219406613E+00 -3.243519749788E+00  2.492113429183E+00
 O   3.782581073628E+00 -4.739819558673E-02  2.460519714151E+00
 O   1.930975013321E+00  3.283480626215E+00  2.423984604984E+00
 O   5.623987699337E+00 -3.236330774980E+00  2.434262667382E+00
 O  -3.799107959786E+00 -1.001040665233E-02  2.454065957969E+00
 O  -5.738031473464E+00  3.275528431675E+00  2.429770329462E+00
 O  -1.898487512226E+00 -3.358631105531E+00  2.450427346445E+00
 O   1.867535102057E+00 -1.079746188088E+00  8.958300713630E-01
 O   1.570013961298E-02  2.196184185235E+00  8.746200305316E-01
 O   3.750082410894E+00 -4.345069658505E+00  8.950283125849E-01
 O   5.640036708076E+00 -1.082346386085E+00  8.717606345401E-01
 O   3.751577444967E+00  2.128409214076E+00  8.650557760039E-01
 O   7.495686893608E+00 -4.316963696546E+00  8.552436722361E-01
 O  -1.884208146654E+00 -1.104419420213E+00  9.126242591012E-01
 O  -3.769931486403E+00  2.179241981032E+00  9.156605743352E-01
 O   2.824803858546E-02 -4.315391278418E+00  8.857042473922E-01
 CE -2.184303636519E-05  6.461634146093E-03  4.665416037976E-02
 CE -1.873860100363E+00  3.257615745621E+00  4.885953558991E-02
 CE  1.877901580879E+00 -3.250907411939E+00  5.361741386399E-02
 CE  3.762046477606E+00 -1.503262888217E-02  3.409756101682E-02
 CE  1.876679302700E+00  3.251009321559E+00  2.229441034422E-02
 CE  5.625388741275E+00 -3.241483657907E+00  3.734785474956E-02
 CE -3.773382696136E+00 -1.243674253921E-02  4.660715597341E-02
 CE -5.637813597783E+00  3.250726096307E+00  4.040127894695E-02
 CE -1.876765877962E+00 -3.253574308134E+00  3.848311144869E-02
 O  -1.887832178528E+00  1.079783639264E+00 -7.280821751371E-01
 O  -3.757108768240E+00  4.326157097482E+00 -7.469659162732E-01
 O  -7.393607747477E-03 -2.161828439065E+00 -7.459625020793E-01
 O   1.874271363088E+00  1.078788300806E+00 -7.536479407203E-01
 O  -3.016209789849E-03  4.338010376073E+00 -7.573606706466E-01
 O   3.748859996366E+00 -2.168812697320E+00 -7.494576283437E-01
 O  -5.634042600170E+00  1.080180305270E+00 -7.455046355204E-01
 O  -7.511031446120E+00  4.326637709397E+00 -7.352729382696E-01
 O  -3.756693504843E+00 -2.166845737407E+00 -7.486875455051E-01
 O   0.000000000000E+00  0.000000000000E+00 -2.343480358560E+00
 O  -1.876737417264E+00  3.249876912011E+00 -2.343480358560E+00
 O   1.876737417269E+00 -3.249876912006E+00 -2.343480358560E+00
 O   3.761015993549E+00  4.387470013371E-03 -2.343480358560E+00
 O   1.884278576279E+00  3.254264382028E+00 -2.343480358560E+00
 O   5.637753410828E+00 -3.245489441992E+00 -2.343480358560E+00
 O  -3.761015993549E+00 -4.387470022371E-03 -2.343480358560E+00
 O  -5.637753410828E+00  3.245489441992E+00 -2.343480358560E+00
 O  -1.884278576284E+00 -3.254264382024E+00 -2.343480358560E+00
 CE -1.879251136939E+00  1.081829813997E+00 -3.124640478080E+00
 CE -3.755988554199E+00  4.331706726013E+00 -3.124640478080E+00
 CE -2.513719670295E-03 -2.168047098011E+00 -3.124640478080E+00
 CE  1.881764856610E+00  1.086217284014E+00 -3.124640478080E+00
 CE  5.027439342589E-03  4.336094196027E+00 -3.124640478080E+00
 CE  3.758502273879E+00 -2.163659627995E+00 -3.124640478080E+00
 CE -5.640267130533E+00  1.077442343968E+00 -3.124640478080E+00
 CE -7.517004547757E+00  4.327319256000E+00 -3.124640478080E+00
 CE -3.763529713222E+00 -2.172434568031E+00 -3.124640478080E+00
 O   1.879251136939E+00 -1.081829813997E+00 -3.905800597599E+00
 O   2.513719670295E-03  2.168047098011E+00 -3.905800597599E+00
 O   3.755988554199E+00 -4.331706726013E+00 -3.905800597599E+00
 O   5.640267130533E+00 -1.077442343968E+00 -3.905800597599E+00
 O   3.763529713226E+00  2.172434568032E+00 -3.905800597599E+00
 O   7.517004547757E+00 -4.327319256000E+00 -3.905800597599E+00
 O  -1.881764856610E+00 -1.086217284014E+00 -3.905800597599E+00
 O  -3.758502273881E+00  2.163659627995E+00 -3.905800597599E+00
 O  -5.027439343589E-03 -4.336094196027E+00 -3.905800597599E+00
 O   5.144514190389E-02 -3.855116248053E+00  5.869708438220E+00
 H  -7.428173824438E-01 -3.347564900616E+00  6.157041054846E+00
 H  -5.343402280463E+00  5.149867562018E+00  6.489054364929E+00
 H  -7.712966339537E+00  4.384235915508E+00  5.270671122049E+00
 O   2.335924985471E+00  2.365336737814E+00  7.108148316445E+00
 H   2.270581020583E+00  2.260881365488E+00  8.072899959385E+00
 H   2.093811914607E+00  3.305164707019E+00  6.911726884726E+00
 O   5.637659610412E+00 -1.108851999342E+00  6.017656029094E+00
 H   5.439133190717E+00 -2.517463770243E-01  6.462554387475E+00
 H   4.849914506006E+00 -1.669481943398E+00  6.122175629014E+00
 O  -6.152912518233E+00  1.626249682404E+00  6.618422070392E+00
 H  -5.988854462615E+00  1.475905520002E+00  5.631182306511E+00
 H  -7.108464583718E+00  1.823104365348E+00  6.755737629091E+00
 H   7.969605817908E-01  4.598486755933E+00  5.525900580513E+00
 O   1.567451860662E+00  4.839574132478E+00  6.134364585738E+00
 H   6.914119638931E+00 -4.175189586511E+00  6.701321021083E+00
 H  -4.403945008959E+00  3.814370617578E+00  8.114641204366E+00
 O  -4.585324201514E+00  3.775383579649E+00  7.160786784233E+00
 H  -5.147975719174E+00  2.960261295608E+00  7.011927488152E+00
 H  -2.423141740115E+00 -1.595074758796E+00  6.913702225867E+00
 O  -2.174291445365E+00 -2.090938934411E+00  6.118728330951E+00
 H  -2.999685840511E+00 -2.202664791417E+00  5.561762257591E+00
 H  -1.350993476689E+00  3.988239482139E+00  6.055042346442E+00
 O   3.681527890348E+00 -4.998271288718E+00  5.925167922900E+00
 H  -2.849316320371E+00  4.430607187552E+00  6.146138360039E+00
 H   2.731154479144E+00 -2.108229517618E+00  5.634973504458E+00
 H   1.205956137883E+00 -2.366713196186E+00  5.931955434409E+00
 O   1.877685091035E+00 -1.654363177844E+00  5.815232135735E+00
 O  -2.651928856998E-01  2.142338059580E+00  5.886310045047E+00
 H  -9.155868773011E-01  1.413418082336E+00  5.796734877527E+00
 H   5.556180678322E-01  1.842855981164E+00  6.338829575988E+00
  112
Ceria bulk                               E -1.7660271015681E+04 DE 3.3E-08(  3)
 O  -1.945874710049E+00  1.039893120906E+00  4.118179898602E+00
 O  -3.823982228623E+00  4.281223315293E+00  3.997828821695E+00
 O  -5.015921636935E-02 -2.106578136934E+00  3.870951350670E+00
 O   1.922565262683E+00  1.106401152823E+00  4.020807344198E+00
 O   7.619298439917E-02  4.367897547880E+00  4.066856238237E+00
 O   3.824179159848E+00 -2.228119370699E+00  4.146200764277E+00
 O  -5.666423688246E+00  1.138557825085E+00  4.107505473690E+00
 O  -7.532714559914E+00  4.259517672252E+00  4.323730194607E+00
 O  -3.764491694591E+00 -2.225003798106E+00  4.063732894242E+00
 CE  1.864153427218E+00 -1.069409027761E+00  3.274938570403E+00
 CE  1.391076046802E-02  2.173489149940E+00  3.266278994238E+00
 CE  3.758624677872E+00 -4.344353041419E+00  3.312081909588E+00
 CE  5.640326449880E+00 -1.099985396123E+00  3.320717393908E+00
 CE  3.743179841102E+00  2.107346397617E+00  3.166037589304E+00
 CE  7.482119959020E+00 -4.298349165530E+00  3.167230367453E+00
 CE -1.884901987290E+00 -1.067484300382E+00  3.234001195925E+00
 CE -3.771519957906E+00  2.163778272735E+00  3.222897718947E+00
 CE  4.290486622185E-02 -4.305157994864E+00  3.269923978289E+00
 O  -1.235279536869E-02  7.517341687670E-02  2.438718152998E+00
 O  -1.850085430369E+00  3.236193157609E+00  2.483389417435E+00
 O   1.915219406613E+00 -3.243519749788E+00  2.492113429183E+00
 O   3.782581073628E+00 -4.739819558673E-02  2.460519714151E+00
 O   1.930975013321E+00  3.283480626215E+00  2.423984604984E+00
 O   5.623987699337E+00 -3.236330774980E+00  2.434262667382E+00
 O  -3.799107959786E+00 -1.001040665233E-02  2.454065957969E+00
 O  -5.738031473464E+00  3.275528431675E+00  2.429770329462E+00
 O  -1.898487512226E+00 -3.358631105531E+00  2.450427346445E+00
 O   1.867535102057E+00 -1.079746188088E+00  8.958300713630E-01
 O   1.570013961298E-02  2.196184185235E+00  8.746200305316E-01
 O   3.750082410894E+00 -4.345069658505E+00  8.950283125849E-01
 O   5.640036708076E+00 -1.082346386085E+00  8.717606345401E-01
 O   3.751577444967E+00  2.128409214076E+00  8.650557760039E-01
 O   7.495686893608E+00 -4.316963696546E+00  8.552436722361E-01
 O  -1.884208146654E+00 -1.104419420213E+00  9.126242591012E-01
 O  -3.769931486403E+00  2.179241981032E+00  9.156605743352E-01
 O   2.824803858546E-02 -4.315391278418E+00  8.857042473922E-01
 CE -2.184303636519E-05  6.461634146093E-03  4.665416037976E-02
 CE -1.873860100363E+00  3.257615745621E+00  4.885953558991E-02
 CE  1.877901580879E+00 -3.250907411939E+00  5.361741386399E-02
 CE  3.762046477606E+00 -1.503262888217E-02  3.409756101682E-02
 CE  1.876679302700E+00  3.251009321559E+00  2.229441034422E-02
 CE  5.625388741275E+00 -3.241483657907E+00  3.734785474956E-02
 CE -3.773382696136E+00 -1.243674253921E-02  4.660715597341E-02
 CE -5.637813597783E+00  3.250726096307E+00  4.040127894695E-02
 CE -1.876765877962E+00 -3.253574308134E+00  3.848311144869E-02
 O  -1.887832178528E+00  1.079783639264E+00 -7.280821751371E-01
 O  -3.757108768240E+00  4.326157097482E+00 -7.469659162732E-01
 O  -7.393607747477E-03 -2.161828439065E+00 -7.459625020793E-01
 O   1.874271363088E+00  1.078788300806E+00 -7.536479407203E-01
 O  -3.016209789849E-03  4.338010376073E+00 -7.573606706466E-01
 O   3.748859996366E+00 -2.168812697320E+00 -7.494576283437E-01
 O  -5.634042600170E+00  1.080180305270E+00 -7.455046355204E-01
 O  -7.511031446120E+00  4.326637709397E+00 -7.352729382696E-01
 O  -3.756693504843E+00 -2.166845737407E+00 -7.486875455051E-01
 O   0.000000000000E+00  0.000000000000E+00 -2.343480358560E+00
 O  -1.876737417264E+00  3.249876912011E+00 -2.343480358560E+00
 O   1.876737417269E+00 -3.249876912006E+00 -2.343480358560E+00
 O   3.761015993549E+00  4.387470013371E-03 -2.343480358560E+00
 O   1.884278576279E+00  3.254264382028E+00 -2.343480358560E+00
 O   5.637753410828E+00 -3.245489441992E+00 -2.343480358560E+00
 O  -3.761015993549E+00 -4.387470022371E-03 -2.343480358560E+00
 O  -5.637753410828E+00  3.245489441992E+00 -2.343480358560E+00
 O  -1.884278576284E+00 -3.254264382024E+00 -2.343480358560E+00
 CE -1.879251136939E+00  1.081829813997E+00 -3.124640478080E+00
 CE -3.755988554199E+00  4.331706726013E+00 -3.124640478080E+00
 CE -2.513719670295E-03 -2.168047098011E+00 -3.124640478080E+00
 CE  1.881764856610E+00  1.086217284014E+00 -3.124640478080E+00
 CE  5.027439342589E-03  4.336094196027E+00 -3.124640478080E+00
 CE  3.758502273879E+00 -2.163659627995E+00 -3.124640478080E+00
 CE -5.640267130533E+00  1.077442343968E+00 -3.124640478080E+00
 CE -7.517004547757E+00  4.327319256000E+00 -3.124640478080E+00
 CE -3.763529713222E+00 -2.172434568031E+00 -3.124640478080E+00
 O   1.879251136939E+00 -1.081829813997E+00 -3.905800597599E+00
 O   2.513719670295E-03  2.168047098011E+00 -3.905800597599E+00
 O   3.755988554199E+00 -4.331706726013E+00 -3.905800597599E+00
 O   5.640267130533E+00 -1.077442343968E+00 -3.905800597599E+00
 O   3.763529713226E+00  2.172434568032E+00 -3.905800597599E+00
 O   7.517004547757E+00 -4.327319256000E+00 -3.905800597599E+00
 O  -1.881764856610E+00 -1.086217284014E+00 -3.905800597599E+00
 O  -3.758502273881E+00  2.163659627995E+00 -3.905800597599E+00
 O  -5.027439343589E-03 -4.336094196027E+00 -3.905800597599E+00
 O   5.144514190389E-02 -3.855116248053E+00  5.869708438220E+00
 H  -7.428173824438E-01 -3.347564900616E+00  6.157041054846E+00
 H  -5.343402280463E+00  5.149867562018E+00  6.489054364929E+00
 H  -7.712966339537E+00  4.384235915508E+00  5.270671122049E+00
 O   2.335924985471E+00  2.365336737814E+00  7.108148316445E+00
 H   2.270581020583E+00  2.260881365488E+00  8.072899959385E+00
 H   2.093811914607E+00  3.305164707019E+00  6.911726884726E+00
 O   5.637659610412E+00 -1.108851999342E+00  6.017656029094E+00
 H   5.439133190717E+00 -2.517463770243E-01  6.462554387475E+00
 H   4.849914506006E+00 -1.669481943398E+00  6.122175629014E+00
 O  -6.152912518233E+00  1.626249682404E+00  6.618422070392E+00
 H  -5.988854462615E+00  1.475905520002E+00  5.631182306511E+00
 H  -7.108464583718E+00  1.823104365348E+00  6.755737629091E+00
 H   7.969605817908E-01  4.598486755933E+00  5.525900580513E+00
 O   1.567451860662E+00  4.839574132478E+00  6.134364585738E+00
 H   6.914119638931E+00 -4.175189586511E+00  6.701321021083E+00
 H  -4.403945008959E+00  3.814370617578E+00  8.114641204366E+00
 O  -4.585324201514E+00  3.775383579649E+00  7.160786784233E+00
 H  -5.147975719174E+00  2.960261295608E+00  7.011927488152E+00
 H  -2.423141740115E+00 -1.595074758796E+00  6.913702225867E+00
 O  -2.174291445365E+00 -2.090938934411E+00  6.118728330951E+00
 H  -2.999685840511E+00 -2.202664791417E+00  5.561762257591E+00
 H  -1.350993476689E+00  3.988239482139E+00  6.055042346442E+00
 O   3.681527890348E+00 -4.998271288718E+00  5.925167922900E+00
 H  -2.849316320371E+00  4.430607187552E+00  6.146138360039E+00
 H   2.731154479144E+00 -2.108229517618E+00  5.634973504458E+00
 H   1.205956137883E+00 -2.366713196186E+00  5.931955434409E+00
 O   1.877685091035E+00 -1.654363177844E+00  5.815232135735E+00
 O  -2.651928856998E-01  2.142338059580E+00  5.886310045047E+00
 H  -9.155868773011E-01  1.413418082336E+00  5.796734877527E+00
 H   5.556180678322E-01  1.842855981164E+00  6.338829575988E+00
