  111
Ceria bulk                              
 O  -1.850220243664E+00  1.049417321704E+00  3.984598349325E+00
 O  -3.730501758321E+00  4.349957361164E+00  4.054653411953E+00
 O   7.962219167900E-02 -2.195651940176E+00  4.027957872206E+00
 O   1.912654661267E+00  1.180280048520E+00  4.104107923539E+00
 O   2.538375527400E-02  4.347890909525E+00  3.967488621713E+00
 O   3.773595495861E+00 -2.169121737004E+00  3.945659662092E+00
 O  -5.685337578127E+00  1.184717146482E+00  4.071078778683E+00
 O  -7.544515355018E+00  4.372010630711E+00  4.125181208269E+00
 O  -3.802413357145E+00 -2.125845591442E+00  4.055829363872E+00
 CE  1.902623018569E+00 -1.102516822476E+00  3.246150702887E+00
 CE  1.093121344600E-02  2.155020657383E+00  3.243476577610E+00
 CE  3.789622005469E+00 -4.377313463241E+00  3.224767446323E+00
 CE  5.628869546300E+00 -1.086719195421E+00  3.216300222494E+00
 CE  3.753545736453E+00  2.201288170551E+00  3.199432290536E+00
 CE  7.520053903652E+00 -4.364832487419E+00  3.238294165825E+00
 CE -1.886360475901E+00 -1.074646009980E+00  3.297415352549E+00
 CE -3.768159455335E+00  2.192647674361E+00  3.273256895950E+00
 CE  1.608688091500E-02 -4.325763538827E+00  3.239486966104E+00
 O   4.520789086000E-02 -6.115291720000E-03  2.439376842789E+00
 O  -1.888475563410E+00  3.255357279420E+00  2.425085510909E+00
 O   1.891989770730E+00 -3.291987353520E+00  2.409209151544E+00
 O   3.752950201121E+00  2.762228698700E-02  2.412007533120E+00
 O   1.901042519995E+00  3.275041321991E+00  2.390905630493E+00
 O   5.665692899500E+00 -3.268782268068E+00  2.406898113816E+00
 O  -3.787361443785E+00  2.469522912400E-02  2.442717751521E+00
 O  -5.642595140397E+00  3.318046790334E+00  2.421989644085E+00
 O  -1.878427480102E+00 -3.255329110258E+00  2.463678950496E+00
 O   1.891310442570E+00 -1.101263509116E+00  8.580068110180E-01
 O   1.965639800022E-05  2.170662310367E+00  8.638275752030E-01
 O   3.777573070644E+00 -4.365716470308E+00  8.548871683790E-01
 O   5.634915039043E+00 -1.092477209723E+00  8.605586333180E-01
 O   3.769011412219E+00  2.179451327224E+00  8.494727275450E-01
 O   7.535299177795E+00 -4.355119764866E+00  8.639078610290E-01
 O  -1.879435044367E+00 -1.076129398379E+00  8.929362429090E-01
 O  -3.769471336663E+00  2.185908220906E+00  8.677687371270E-01
 O  -5.037972606000E-03 -4.332453663530E+00  8.699918411870E-01
 CE  2.679789531000E-03 -1.534943667000E-03  5.641056377100E-02
 CE -1.882527187499E+00  3.262156159515E+00  5.026382811200E-02
 CE  1.887819484241E+00 -3.265446538713E+00  4.468494485200E-02
 CE  3.760327036760E+00 -3.799639748000E-03  3.571255555900E-02
 CE  1.878527514099E+00  3.266709921454E+00  3.528567377100E-02
 CE  5.648945815393E+00 -3.272704342516E+00  4.003021201000E-02
 CE -3.756487894861E+00  1.406423187500E-02  5.455627389300E-02
 CE -5.638074116816E+00  3.282030671795E+00  4.100491308100E-02
 CE -1.874094985008E+00 -3.249123190991E+00  5.118159102300E-02
 O  -1.880027191931E+00  1.090062208769E+00 -7.641852328510E-01
 O  -3.764966658200E+00  4.362378089967E+00 -7.666395444560E-01
 O   4.011488519999E-04 -2.168529839732E+00 -7.669805187010E-01
 O   1.880179060077E+00  1.086109537878E+00 -7.674868330930E-01
 O   8.701311399970E-05  4.352311457255E+00 -7.701530581990E-01
 O   3.767315519649E+00 -2.182092740697E+00 -7.731741261920E-01
 O  -5.634615047037E+00  1.099733462622E+00 -7.717926187610E-01
 O  -7.519823756256E+00  4.374072351798E+00 -7.717283497520E-01
 O  -3.749938337574E+00 -2.161748891299E+00 -7.657573054240E-01
 O   0.000000000000E+00  0.000000000000E+00 -2.343480358560E+00
 O  -1.884199303517E+00  3.267177693631E+00 -2.343480358560E+00
 O   1.884199303523E+00 -3.267177693626E+00 -2.343480358560E+00
 O   3.758809590372E+00 -5.498318325000E-03 -2.343480358560E+00
 O   1.874610286848E+00  3.261679375312E+00 -2.343480358560E+00
 O   5.643008893904E+00 -3.272676011951E+00 -2.343480358560E+00
 O  -3.758809590372E+00  5.498318315000E-03 -2.343480358560E+00
 O  -5.643008893904E+00  3.272676011951E+00 -2.343480358560E+00
 O  -1.874610286854E+00 -3.261679375307E+00 -2.343480358560E+00
 CE -1.881002964631E+00  1.090892003982E+00 -3.124640478080E+00
 CE -3.765202268143E+00  4.358069697618E+00 -3.124640478080E+00
 CE  3.196338891000E-03 -2.176285689644E+00 -3.124640478080E+00
 CE  1.877806625741E+00  1.085393685662E+00 -3.124640478080E+00
 CE -6.392677779000E-03  4.352571379297E+00 -3.124640478080E+00
 CE  3.762005929262E+00 -2.181784007968E+00 -3.124640478080E+00
 CE -5.639812555044E+00  1.096390322290E+00 -3.124640478080E+00
 CE -7.524011858522E+00  4.363568015944E+00 -3.124640478080E+00
 CE -3.755613251483E+00 -2.170787371329E+00 -3.124640478080E+00
 O   1.881002964631E+00 -1.090892003982E+00 -3.905800597599E+00
 O  -3.196338891000E-03  2.176285689644E+00 -3.905800597599E+00
 O   3.765202268143E+00 -4.358069697618E+00 -3.905800597599E+00
 O   5.639812555044E+00 -1.096390322290E+00 -3.905800597599E+00
 O   3.755613251488E+00  2.170787371329E+00 -3.905800597599E+00
 O   7.524011858522E+00 -4.363568015944E+00 -3.905800597599E+00
 O  -1.877806625741E+00 -1.085393685662E+00 -3.905800597599E+00
 O  -3.762005929264E+00  2.181784007968E+00 -3.905800597599E+00
 O   6.392677778000E-03 -4.352571379297E+00 -3.905800597599E+00
 O   1.239554751703E+01  6.093961439964E+00  6.001213995346E+00
 H   1.262629258056E+01  6.898110213466E+00  5.449120070394E+00
 O   1.539033728375E+01  4.176156070885E+00  6.759511944674E+00
 H   1.634555075734E+01  4.419443925951E+00  6.731101197920E+00
 H   1.514060386471E+01  4.221086269231E+00  5.788155990862E+00
 H   1.340925126688E+01  2.231360629010E-01  5.560741922629E+00
 O   1.355967674870E+01 -7.011539370110E-01  5.894315864952E+00
 H   1.452589225335E+01 -7.645245624790E-01  6.048864916476E+00
 O   1.656451704498E+01 -5.614171229110E-01  5.927697205576E+00
 H   1.675672166120E+01  3.345428741320E-01  5.509810805447E+00
 H   1.725775893627E+01 -7.367869953860E-01  6.581593767019E+00
 O   1.113347006839E+01  2.632785344209E+00  5.913136482484E+00
 H   1.193931000122E+01  2.349120708926E+00  6.371434214732E+00
 H   1.129064410873E+01  3.549252121981E+00  5.569015457030E+00
 O   9.641733832071E+00  5.862916674265E+00  5.861189816430E+00
 H   1.061356244492E+01  5.832108699522E+00  6.055358401415E+00
 H   9.505061424735E+00  6.787847595386E+00  5.544369742193E+00
 H   1.301720060721E+01  6.138156344255E+00  6.768487026697E+00
 O   1.775785524741E+01  5.343098950227E+00  6.115787282612E+00
 H   1.840561772450E+01  4.877938855864E+00  5.501530197189E+00
 H   1.819983709490E+01  6.140309655549E+00  6.447292549976E+00
 H   2.191564658262E+01 -1.747436297035E+00  5.651475782996E+00
 O   2.104371099174E+01 -1.372020406737E+00  5.914735504041E+00
 H   2.065296578548E+01 -2.024517341763E+00  6.540389217216E+00
 O   1.921965883261E+01  1.963509829235E+00  5.908963023153E+00
 H   2.007590975359E+01  1.528377554701E+00  5.679466301792E+00
 H   1.944991811940E+01  2.808099448578E+00  6.329043328633E+00
 O   8.797975495383E+00  1.143173531557E+01  6.104000000000E+00
 H   9.655363241899E+00  1.086521391376E+01  6.101800000000E+00
 H   9.051056353824E+00  1.236534875491E+01  6.106400000000E+00
