  111
CERIA BULK                              
 O  -1.874045454200E+00  1.091560444394E+00  4.175459267681E+00
 O  -3.718268815130E+00  4.263410222101E+00  3.876106511556E+00
 O  -7.668277226000E-02 -2.132923206382E+00  4.060500209648E+00
 O   1.827419195705E+00  1.182824957047E+00  4.180042382271E+00
 O  -1.429305065130E-01  4.224991258992E+00  4.127598303816E+00
 O  -5.641836304508E+00  1.073184769162E+00  4.044289357253E+00
 O  -7.414762146239E+00  4.279044657789E+00  4.352954574288E+00
 O  -3.779202604709E+00 -2.016373025811E+00  4.066159322994E+00
 CE  1.801681330712E+00 -9.997103275790E-01  3.257046784874E+00
 CE -3.424190861000E-03  2.171869990696E+00  3.184472969846E+00
 CE  3.717714715058E+00 -4.522125148921E+00  3.160861931209E+00
 CE  5.738030143475E+00 -1.004057306073E+00  3.170580139582E+00
 CE  3.750246625234E+00  2.154333169751E+00  3.136298696115E+00
 CE  7.453328732741E+00 -4.304402722994E+00  3.392812884671E+00
 CE -1.881499164877E+00 -1.101314406833E+00  3.236810080078E+00
 CE -3.783815582276E+00  2.174153557898E+00  3.240660955930E+00
 CE  4.717191397600E-02 -4.293859176178E+00  3.268412466560E+00
 O  -3.143154046000E-02  4.926895837000E-02  2.404052662962E+00
 O  -1.870477165592E+00  3.180144815406E+00  2.354088708172E+00
 O   2.007090723711E+00 -3.203916292906E+00  2.571797938047E+00
 O   3.773678741093E+00 -4.318408334800E-02  2.437225481768E+00
 O   1.907373700191E+00  3.289736800626E+00  2.446007083703E+00
 O   5.424337775610E+00 -3.161915756594E+00  2.649009064352E+00
 O  -3.736276022006E+00  5.380580636200E-02  2.388752361444E+00
 O  -5.709344766396E+00  3.297105752996E+00  2.418379224596E+00
 O  -1.866087023085E+00 -3.336326758914E+00  2.493194169677E+00
 O   1.856881470097E+00 -1.082162043384E+00  8.490477294340E-01
 O   2.848085010800E-02  2.193453647941E+00  8.353094218720E-01
 O   3.757819969357E+00 -4.391401141783E+00  8.541072396200E-01
 O   5.680755964099E+00 -1.088407321431E+00  8.694767282450E-01
 O   3.753413755712E+00  2.162407192121E+00  8.495481303060E-01
 O   7.432619174292E+00 -4.284294790292E+00  9.185351080940E-01
 O  -1.888206116477E+00 -1.122685207354E+00  8.870428637980E-01
 O  -3.792277685491E+00  2.194917049860E+00  8.489887993350E-01
 O   5.896625062700E-02 -4.306965227115E+00  9.135417725510E-01
 CE  4.048660994000E-03 -3.691349841000E-03  1.368795399700E-02
 CE -1.882973848089E+00  3.257533683345E+00 -5.428146169000E-03
 CE  1.877205446103E+00 -3.251242061472E+00  3.462942553500E-02
 CE  3.754359960591E+00  3.035439808000E-03  1.988214152500E-02
 CE  1.875872769516E+00  3.300636858674E+00  4.913079952900E-02
 CE  5.638555724403E+00 -3.258267188291E+00  3.258198439600E-02
 CE -3.761380760007E+00 -3.877803540000E-04  7.060353564000E-03
 CE -5.634802032175E+00  3.276398482826E+00  4.494892443000E-02
 CE -1.900985979970E+00 -3.270259486561E+00  7.814662377200E-02
 O  -1.884662348821E+00  1.080804803639E+00 -7.579870082380E-01
 O  -3.763702182729E+00  4.368450873476E+00 -7.641387665590E-01
 O  -1.425566728700E-02 -2.184135196322E+00 -7.565021563960E-01
 O   1.884231498426E+00  1.098980124984E+00 -7.615586654850E-01
 O   8.914047899000E-03  4.372930136611E+00 -7.664005303770E-01
 O   3.762705837726E+00 -2.173819986025E+00 -7.470074841640E-01
 O  -5.649585244346E+00  1.078464971623E+00 -7.549588680850E-01
 O  -7.523116720049E+00  4.374434022918E+00 -7.075715995110E-01
 O  -3.765945571074E+00 -2.186501611306E+00 -7.615135035130E-01
 O   0.000000000000E+00  0.000000000000E+00 -2.343480358560E+00
 O  -1.875026199387E+00  3.267884435547E+00 -2.343480358560E+00
 O   1.875026199391E+00 -3.267884435542E+00 -2.343480358560E+00
 O   3.763372281696E+00  7.698609835000E-03 -2.343480358560E+00
 O   1.888346082301E+00  3.275583045382E+00 -2.343480358560E+00
 O   5.638398481100E+00 -3.260185825707E+00 -2.343480358560E+00
 O  -3.763372281696E+00 -7.698609845000E-03 -2.343480358560E+00
 O  -5.638398481100E+00  3.260185825707E+00 -2.343480358560E+00
 O  -1.888346082307E+00 -3.275583045378E+00 -2.343480358560E+00
 CE -1.879466160362E+00  1.086728608567E+00 -3.124640478080E+00
 CE -3.754492359745E+00  4.354613044120E+00 -3.124640478080E+00
 CE -4.439960969000E-03 -2.181155826974E+00 -3.124640478080E+00
 CE  1.883906121333E+00  1.094427218407E+00 -3.124640478080E+00
 CE  8.879921943000E-03  4.362311653953E+00 -3.124640478080E+00
 CE  3.758932320726E+00 -2.173457217139E+00 -3.124640478080E+00
 CE -5.642838442098E+00  1.079029998719E+00 -3.124640478080E+00
 CE -7.517864641447E+00  4.346914434287E+00 -3.124640478080E+00
 CE -3.767812242668E+00 -2.188854436814E+00 -3.124640478080E+00
 O   1.879466160362E+00 -1.086728608567E+00 -3.905800597599E+00
 O   4.439960969000E-03  2.181155826974E+00 -3.905800597599E+00
 O   3.754492359745E+00 -4.354613044120E+00 -3.905800597599E+00
 O   5.642838442098E+00 -1.079029998719E+00 -3.905800597599E+00
 O   3.767812242672E+00  2.188854436815E+00 -3.905800597599E+00
 O   7.517864641447E+00 -4.346914434287E+00 -3.905800597599E+00
 O  -1.883906121333E+00 -1.094427218407E+00 -3.905800597599E+00
 O  -3.758932320728E+00  2.173457217139E+00 -3.905800597599E+00
 O  -8.879921944000E-03 -4.362311653953E+00 -3.905800597599E+00
 O   5.783363730340E-01 -4.471917748104E+00  5.876330390746E+00
 H   3.976359027081E+00  4.322796471715E+00  5.316343692645E+00
 H   7.890633081860E-01 -5.418543410208E+00  6.080159836498E+00
 H  -1.234149217640E-01 -4.120455659159E+00  6.498645488950E+00
 O   2.357533172556E+00  2.355093858074E+00  6.412261790505E+00
 H   2.030790940644E+00  1.819971411372E+00  5.596038466994E+00
 H   1.840469838002E+00  2.078828241051E+00  7.186730478445E+00
 O   3.852747557426E+00 -1.361964926208E+00  5.003879171665E+00
 H   4.065502104590E+00 -6.397809924610E-01  5.681809645663E+00
 H   3.659587337719E+00 -2.230395183921E+00  5.477637982288E+00
 O  -6.594493721487E+00  6.953493858910E-01  6.414989594404E+00
 H  -6.181553763897E+00  9.364084678440E-01  5.524436655966E+00
 H   3.952542027202E+00  1.342634846092E+00  6.579603863561E+00
 H   2.095021382821E+00  4.103557238015E+00  6.244895911750E+00
 O   7.541349759926E+00 -4.722432236018E+00  6.173692456575E+00
 H   6.668524394837E+00 -4.643854890758E+00  6.621853747817E+00
 H   2.247487069938E+00 -3.935524002657E+00  5.840488706195E+00
 O   3.206812639621E+00 -3.733336786239E+00  5.657634599811E+00
 H   3.783107797632E+00 -4.348581735787E+00  6.224495851132E+00
 H  -1.503171377603E+00 -3.526645228618E+00  8.228916203160E+00
 O  -1.494064678083E+00 -3.542012937958E+00  7.258570220637E+00
 H  -2.373769709476E+00 -3.880258097174E+00  6.963204843115E+00
 O  -1.730208009225E+00  1.810999231099E+00  6.663516745266E+00
 H  -1.754544178673E+00  1.419012612859E+00  5.715301789475E+00
 H  -1.668600792228E+00  1.084429719057E+00  7.302909525474E+00
 H  -4.525326275770E-01  4.239838800097E+00  5.673068532942E+00
 O  -7.057280749660E-01  4.411694791814E+00  6.642469144893E+00
 H  -1.035071076515E+00  3.542572990522E+00  6.962642568233E+00
 O   1.386629369569E+00  1.244832768062E+01  6.134498615808E+00
 H   2.280173084828E+00  1.223889967558E+01  6.512760117212E+00
 H   7.646513589840E-01  1.181204461224E+01  6.540158437633E+00
  111
CERIA BULK                              
 O  -1.874045454200E+00  1.091560444394E+00  4.175459267681E+00
 O  -3.718268815130E+00  4.263410222101E+00  3.876106511556E+00
 O  -7.668277225959E-02 -2.132923206382E+00  4.060500209648E+00
 O   1.827419195705E+00  1.182824957047E+00  4.180042382271E+00
 O  -1.429305065126E-01  4.224991258992E+00  4.127598303816E+00
 O  -5.641836304508E+00  1.073184769162E+00  4.044289357253E+00
 O  -7.414762146239E+00  4.279044657789E+00  4.352954574288E+00
 O  -3.779202604709E+00 -2.016373025811E+00  4.066159322994E+00
 CE  1.801681330712E+00 -9.997103275790E-01  3.257046784874E+00
 CE -3.424190861398E-03  2.171869990696E+00  3.184472969846E+00
 CE  3.717714715058E+00 -4.522125148921E+00  3.160861931209E+00
 CE  5.738030143475E+00 -1.004057306073E+00  3.170580139582E+00
 CE  3.750246625234E+00  2.154333169751E+00  3.136298696115E+00
 CE  7.453328732741E+00 -4.304402722994E+00  3.392812884671E+00
 CE -1.881499164877E+00 -1.101314406833E+00  3.236810080078E+00
 CE -3.783815582276E+00  2.174153557898E+00  3.240660955930E+00
 CE  4.717191397564E-02 -4.293859176178E+00  3.268412466560E+00
 O  -3.143154046006E-02  4.926895836954E-02  2.404052662962E+00
 O  -1.870477165592E+00  3.180144815406E+00  2.354088708172E+00
 O   2.007090723711E+00 -3.203916292906E+00  2.571797938047E+00
 O   3.773678741093E+00 -4.318408334771E-02  2.437225481768E+00
 O   1.907373700191E+00  3.289736800626E+00  2.446007083703E+00
 O   5.424337775610E+00 -3.161915756594E+00  2.649009064352E+00
 O  -3.736276022006E+00  5.380580636176E-02  2.388752361444E+00
 O  -5.709344766397E+00  3.297105752996E+00  2.418379224596E+00
 O  -1.866087023085E+00 -3.336326758914E+00  2.493194169677E+00
 O   1.856881470097E+00 -1.082162043384E+00  8.490477294340E-01
 O   2.848085010805E-02  2.193453647941E+00  8.353094218719E-01
 O   3.757819969357E+00 -4.391401141783E+00  8.541072396204E-01
 O   5.680755964099E+00 -1.088407321431E+00  8.694767282455E-01
 O   3.753413755712E+00  2.162407192121E+00  8.495481303056E-01
 O   7.432619174292E+00 -4.284294790292E+00  9.185351080937E-01
 O  -1.888206116477E+00 -1.122685207354E+00  8.870428637979E-01
 O  -3.792277685491E+00  2.194917049860E+00  8.489887993346E-01
 O   5.896625062720E-02 -4.306965227115E+00  9.135417725506E-01
 CE  4.048660994493E-03 -3.691349841350E-03  1.368795399707E-02
 CE -1.882973848089E+00  3.257533683345E+00 -5.428146168517E-03
 CE  1.877205446103E+00 -3.251242061472E+00  3.462942553470E-02
 CE  3.754359960591E+00  3.035439808054E-03  1.988214152542E-02
 CE  1.875872769516E+00  3.300636858674E+00  4.913079952926E-02
 CE  5.638555724403E+00 -3.258267188291E+00  3.258198439563E-02
 CE -3.761380760007E+00 -3.877803537891E-04  7.060353563684E-03
 CE -5.634802032175E+00  3.276398482826E+00  4.494892442990E-02
 CE -1.900985979970E+00 -3.270259486561E+00  7.814662377232E-02
 O  -1.884662348821E+00  1.080804803639E+00 -7.579870082385E-01
 O  -3.763702182729E+00  4.368450873476E+00 -7.641387665586E-01
 O  -1.425566728671E-02 -2.184135196322E+00 -7.565021563960E-01
 O   1.884231498426E+00  1.098980124984E+00 -7.615586654849E-01
 O   8.914047899442E-03  4.372930136611E+00 -7.664005303771E-01
 O   3.762705837726E+00 -2.173819986025E+00 -7.470074841642E-01
 O  -5.649585244346E+00  1.078464971623E+00 -7.549588680846E-01
 O  -7.523116720049E+00  4.374434022918E+00 -7.075715995108E-01
 O  -3.765945571074E+00 -2.186501611306E+00 -7.615135035132E-01
 O   0.000000000000E+00  0.000000000000E+00 -2.343480358560E+00
 O  -1.875026199387E+00  3.267884435547E+00 -2.343480358560E+00
 O   1.875026199391E+00 -3.267884435542E+00 -2.343480358560E+00
 O   3.763372281696E+00  7.698609835257E-03 -2.343480358560E+00
 O   1.888346082301E+00  3.275583045382E+00 -2.343480358560E+00
 O   5.638398481100E+00 -3.260185825707E+00 -2.343480358560E+00
 O  -3.763372281696E+00 -7.698609845257E-03 -2.343480358560E+00
 O  -5.638398481100E+00  3.260185825707E+00 -2.343480358560E+00
 O  -1.888346082307E+00 -3.275583045378E+00 -2.343480358560E+00
 CE -1.879466160362E+00  1.086728608567E+00 -3.124640478080E+00
 CE -3.754492359745E+00  4.354613044120E+00 -3.124640478080E+00
 CE -4.439960969485E-03 -2.181155826974E+00 -3.124640478080E+00
 CE  1.883906121333E+00  1.094427218407E+00 -3.124640478080E+00
 CE  8.879921942970E-03  4.362311653953E+00 -3.124640478080E+00
 CE  3.758932320726E+00 -2.173457217139E+00 -3.124640478080E+00
 CE -5.642838442098E+00  1.079029998719E+00 -3.124640478080E+00
 CE -7.517864641447E+00  4.346914434287E+00 -3.124640478080E+00
 CE -3.767812242668E+00 -2.188854436814E+00 -3.124640478080E+00
 O   1.879466160362E+00 -1.086728608567E+00 -3.905800597599E+00
 O   4.439960969485E-03  2.181155826974E+00 -3.905800597599E+00
 O   3.754492359745E+00 -4.354613044120E+00 -3.905800597599E+00
 O   5.642838442098E+00 -1.079029998719E+00 -3.905800597599E+00
 O   3.767812242672E+00  2.188854436815E+00 -3.905800597599E+00
 O   7.517864641447E+00 -4.346914434287E+00 -3.905800597599E+00
 O  -1.883906121333E+00 -1.094427218407E+00 -3.905800597599E+00
 O  -3.758932320728E+00  2.173457217139E+00 -3.905800597599E+00
 O  -8.879921943970E-03 -4.362311653953E+00 -3.905800597599E+00
 O   5.783363730341E-01 -4.471917748104E+00  5.876330390746E+00
 H   3.976359027081E+00  4.322796471715E+00  5.316343692645E+00
 H   7.890633081861E-01 -5.418543410209E+00  6.080159836498E+00
 H  -1.234149217644E-01 -4.120455659159E+00  6.498645488950E+00
 O   2.357533172556E+00  2.355093858074E+00  6.412261790505E+00
 H   2.030790940644E+00  1.819971411372E+00  5.596038466994E+00
 H   1.840469838002E+00  2.078828241051E+00  7.186730478445E+00
 O   3.852747557426E+00 -1.361964926208E+00  5.003879171665E+00
 H   4.065502104590E+00 -6.397809924607E-01  5.681809645663E+00
 H   3.659587337719E+00 -2.230395183921E+00  5.477637982288E+00
 O  -6.594493721487E+00  6.953493858907E-01  6.414989594404E+00
 H  -6.181553763897E+00  9.364084678442E-01  5.524436655966E+00
 H   3.952542027202E+00  1.342634846092E+00  6.579603863561E+00
 H   2.095021382821E+00  4.103557238015E+00  6.244895911750E+00
 O   7.541349759927E+00 -4.722432236018E+00  6.173692456575E+00
 H   6.668524394837E+00 -4.643854890758E+00  6.621853747817E+00
 H   2.247487069938E+00 -3.935524002657E+00  5.840488706195E+00
 O   3.206812639621E+00 -3.733336786239E+00  5.657634599811E+00
 H   3.783107797632E+00 -4.348581735787E+00  6.224495851132E+00
 H  -1.503171377603E+00 -3.526645228618E+00  8.228916203160E+00
 O  -1.494064678083E+00 -3.542012937958E+00  7.258570220637E+00
 H  -2.373769709476E+00 -3.880258097174E+00  6.963204843115E+00
 O  -1.730208009225E+00  1.810999231099E+00  6.663516745266E+00
 H  -1.754544178673E+00  1.419012612859E+00  5.715301789475E+00
 H  -1.668600792228E+00  1.084429719057E+00  7.302909525474E+00
 H  -4.525326275766E-01  4.239838800097E+00  5.673068532942E+00
 O  -7.057280749657E-01  4.411694791814E+00  6.642469144894E+00
 H  -1.035071076515E+00  3.542572990522E+00  6.962642568233E+00
 O   1.386629369569E+00  1.244832768062E+01  6.134498615808E+00
 H   2.280173084828E+00  1.223889967558E+01  6.512760117212E+00
 H   7.646513589835E-01  1.181204461224E+01  6.540158437633E+00
  111
CERIA BULK                               E -1.7585019017153E+04 DE-4.5E-07( 14)
 O  -1.874038111201E+00  1.091572644790E+00  4.175456514618E+00
 O  -3.718259818113E+00  4.263444406830E+00  3.876093202633E+00
 O  -7.667809281165E-02 -2.132890123406E+00  4.060552316607E+00
 O   1.827456995229E+00  1.182858404866E+00  4.180085806309E+00
 O  -1.428814535655E-01  4.224959421586E+00  4.127575237524E+00
 O  -5.641786003401E+00  1.073161086547E+00  4.044283282226E+00
 O  -7.414737474226E+00  4.278992193622E+00  4.352966741117E+00
 O  -3.779120895362E+00 -2.016391786044E+00  4.066064456477E+00
 CE  1.801625921227E+00 -9.997717569356E-01  3.256980620793E+00
 CE -3.402140572723E-03  2.171879483308E+00  3.184437574573E+00
 CE  3.717705326031E+00 -4.522159793958E+00  3.160876494168E+00
 CE  5.737957478157E+00 -1.004039633338E+00  3.170650486807E+00
 CE  3.750151349400E+00  2.154312620069E+00  3.136330492896E+00
 CE  7.453237080764E+00 -4.304361967542E+00  3.392922966544E+00
 CE -1.881496590836E+00 -1.101340385774E+00  3.236711222544E+00
 CE -3.783832751571E+00  2.174144584674E+00  3.240656839287E+00
 CE  4.708977825152E-02 -4.293930720318E+00  3.268453227291E+00
 O  -3.143118906052E-02  4.929552433553E-02  2.404078006009E+00
 O  -1.870515886279E+00  3.180127405601E+00  2.354088653946E+00
 O   2.007100486695E+00 -3.203933425556E+00  2.571780511774E+00
 O   3.773787886085E+00 -4.316199306797E-02  2.437185166588E+00
 O   1.907407540551E+00  3.289773531828E+00  2.445887450336E+00
 O   5.424284945687E+00 -3.161894006291E+00  2.649059609139E+00
 O  -3.736281105095E+00  5.382939194145E-02  2.388782501498E+00
 O  -5.709350887600E+00  3.297125510769E+00  2.418383462016E+00
 O  -1.866021259250E+00 -3.336330500443E+00  2.493188951047E+00
 O   1.856861386169E+00 -1.082163104104E+00  8.490980425592E-01
 O   2.847813839482E-02  2.193455423904E+00  8.353017382033E-01
 O   3.757847952546E+00 -4.391406534868E+00  8.541010331306E-01
 O   5.680780712850E+00 -1.088427285336E+00  8.694440829432E-01
 O   3.753457067686E+00  2.162378949760E+00  8.495333968767E-01
 O   7.432611978783E+00 -4.284258739091E+00  9.185666536531E-01
 O  -1.888218072989E+00 -1.122700784733E+00  8.870211952067E-01
 O  -3.792293070306E+00  2.194905202188E+00  8.489791048543E-01
 O   5.895177532260E-02 -4.306953064945E+00  9.135342357257E-01
 CE  4.001627224176E-03 -3.671760832460E-03  1.364101116923E-02
 CE -1.882970579085E+00  3.257577004622E+00 -5.409628939024E-03
 CE  1.877208080235E+00 -3.251251666921E+00  3.461784390082E-02
 CE  3.754315293367E+00  3.020217205509E-03  1.992165313292E-02
 CE  1.875883525007E+00  3.300642884334E+00  4.913057531036E-02
 CE  5.638607697215E+00 -3.258255392116E+00  3.260008285731E-02
 CE -3.761410020877E+00 -3.728647244347E-04  7.118317553143E-03
 CE -5.634758719637E+00  3.276408929017E+00  4.491253684605E-02
 CE -1.900940894060E+00 -3.270305319415E+00  7.809132588753E-02
 O  -1.884648921079E+00  1.080811118065E+00 -7.579748331330E-01
 O  -3.763692480171E+00  4.368457867799E+00 -7.641281615780E-01
 O  -1.424144740685E-02 -2.184121977161E+00 -7.564967553548E-01
 O   1.884235059938E+00  1.098953527777E+00 -7.615583239331E-01
 O   8.925379725755E-03  4.372920599924E+00 -7.664136064728E-01
 O   3.762696602050E+00 -2.173815281920E+00 -7.470127280040E-01
 O  -5.649601165746E+00  1.078450242344E+00 -7.549714485848E-01
 O  -7.523154532783E+00  4.374446604770E+00 -7.075374693320E-01
 O  -3.765963872260E+00 -2.186503460137E+00 -7.615264202056E-01
 O   0.000000000000E+00  0.000000000000E+00 -2.343480358560E+00
 O  -1.875026598269E+00  3.267885386142E+00 -2.343480358560E+00
 O   1.875026598273E+00 -3.267885386137E+00 -2.343480358560E+00
 O   3.763372811010E+00  7.698456419438E-03 -2.343480358560E+00
 O   1.888346212733E+00  3.275583842561E+00 -2.343480358560E+00
 O   5.638399409295E+00 -3.260186929718E+00 -2.343480358560E+00
 O  -3.763372811010E+00 -7.698456429437E-03 -2.343480358560E+00
 O  -5.638399409295E+00  3.260186929718E+00 -2.343480358560E+00
 O  -1.888346212739E+00 -3.275583842557E+00 -2.343480358560E+00
 CE -1.879466469761E+00  1.086728976571E+00 -3.124640478080E+00
 CE -3.754493068025E+00  4.354614362719E+00 -3.124640478080E+00
 CE -4.439871486225E-03 -2.181156409566E+00 -3.124640478080E+00
 CE  1.883906341248E+00  1.094427432994E+00 -3.124640478080E+00
 CE  8.879742976449E-03  4.362312819136E+00 -3.124640478080E+00
 CE  3.758932939523E+00 -2.173457953146E+00 -3.124640478080E+00
 CE -5.642839280810E+00  1.079030520139E+00 -3.124640478080E+00
 CE -7.517865879041E+00  4.346915906301E+00 -3.124640478080E+00
 CE -3.767812682498E+00 -2.188854865990E+00 -3.124640478080E+00
 O   1.879466469761E+00 -1.086728976571E+00 -3.905800597599E+00
 O   4.439871486225E-03  2.181156409566E+00 -3.905800597599E+00
 O   3.754493068025E+00 -4.354614362719E+00 -3.905800597599E+00
 O   5.642839280810E+00 -1.079030520139E+00 -3.905800597599E+00
 O   3.767812682502E+00  2.188854865991E+00 -3.905800597599E+00
 O   7.517865879041E+00 -4.346915906301E+00 -3.905800597599E+00
 O  -1.883906341248E+00 -1.094427432994E+00 -3.905800597599E+00
 O  -3.758932939525E+00  2.173457953146E+00 -3.905800597599E+00
 O  -8.879742977450E-03 -4.362312819136E+00 -3.905800597599E+00
 O   5.783787190803E-01 -4.471933888803E+00  5.876382758582E+00
 H   3.976298277436E+00  4.322824895816E+00  5.316306261025E+00
 H   7.891007289444E-01 -5.418537248887E+00  6.080176576715E+00
 H  -1.234255023742E-01 -4.120435092121E+00  6.498651972388E+00
 O   2.357494922589E+00  2.355129013767E+00  6.412255114167E+00
 H   2.030772324450E+00  1.819981653181E+00  5.596033237004E+00
 H   1.840460350014E+00  2.078796223564E+00  7.186730678322E+00
 O   3.852756208541E+00 -1.361958035572E+00  5.003894901758E+00
 H   4.065496268434E+00 -6.397755743468E-01  5.681807398476E+00
 H   3.659607381777E+00 -2.230378686118E+00  5.477648854929E+00
 O  -6.594525998988E+00  6.953669638148E-01  6.415004176600E+00
 H  -6.181595549482E+00  9.364353329102E-01  5.524400282184E+00
 H   3.952548783122E+00  1.342648436352E+00  6.579617470230E+00
 H   2.094990911421E+00  4.103525790564E+00  6.244919692607E+00
 O   7.541415258448E+00 -4.722423044490E+00  6.173672866345E+00
 H   6.668470954699E+00 -4.643847961332E+00  6.621824568954E+00
 H   2.247477369581E+00 -3.935491759734E+00  5.840429532912E+00
 O   3.206812226225E+00 -3.733340797501E+00  5.657665981518E+00
 H   3.783068468325E+00 -4.348590314460E+00  6.224517401373E+00
 H  -1.503162287461E+00 -3.526693950165E+00  8.228904309605E+00
 O  -1.494063081616E+00 -3.542096675533E+00  7.258574213196E+00
 H  -2.373751026783E+00 -3.880301255241E+00  6.963256095973E+00
 O  -1.730216729630E+00  1.810994886545E+00  6.663510741343E+00
 H  -1.754559548381E+00  1.418994395118E+00  5.715288926554E+00
 H  -1.668636530662E+00  1.084427524011E+00  7.302903348061E+00
 H  -4.525453071233E-01  4.239815435335E+00  5.673104968895E+00
 O  -7.057181267323E-01  4.411698410545E+00  6.642447408443E+00
 H  -1.035086614432E+00  3.542538713035E+00  6.962656918480E+00
 O   1.386621492748E+00  1.244831847416E+01  6.134490301270E+00
 H   2.280153162518E+00  1.223889370758E+01  6.512774236980E+00
 H   7.646373024359E-01  1.181202205312E+01  6.540168274242E+00
  111
CERIA BULK                               E -1.7585019023341E+04 DE-6.3E-07(  8)
 O  -1.874038111201E+00  1.091572644790E+00  4.175456514618E+00
 O  -3.718259818113E+00  4.263444406830E+00  3.876093202633E+00
 O  -7.667809281165E-02 -2.132890123406E+00  4.060552316607E+00
 O   1.827456995229E+00  1.182858404866E+00  4.180085806309E+00
 O  -1.428814535655E-01  4.224959421586E+00  4.127575237524E+00
 O  -5.641786003401E+00  1.073161086547E+00  4.044283282226E+00
 O  -7.414737474226E+00  4.278992193622E+00  4.352966741117E+00
 O  -3.779120895362E+00 -2.016391786044E+00  4.066064456477E+00
 CE  1.801625921227E+00 -9.997717569356E-01  3.256980620793E+00
 CE -3.402140572723E-03  2.171879483308E+00  3.184437574573E+00
 CE  3.717705326031E+00 -4.522159793958E+00  3.160876494168E+00
 CE  5.737957478157E+00 -1.004039633338E+00  3.170650486807E+00
 CE  3.750151349400E+00  2.154312620069E+00  3.136330492896E+00
 CE  7.453237080764E+00 -4.304361967542E+00  3.392922966544E+00
 CE -1.881496590836E+00 -1.101340385774E+00  3.236711222544E+00
 CE -3.783832751571E+00  2.174144584674E+00  3.240656839287E+00
 CE  4.708977825152E-02 -4.293930720318E+00  3.268453227291E+00
 O  -3.143118906052E-02  4.929552433553E-02  2.404078006009E+00
 O  -1.870515886279E+00  3.180127405601E+00  2.354088653946E+00
 O   2.007100486695E+00 -3.203933425556E+00  2.571780511774E+00
 O   3.773787886085E+00 -4.316199306797E-02  2.437185166588E+00
 O   1.907407540551E+00  3.289773531828E+00  2.445887450336E+00
 O   5.424284945687E+00 -3.161894006291E+00  2.649059609139E+00
 O  -3.736281105095E+00  5.382939194145E-02  2.388782501498E+00
 O  -5.709350887600E+00  3.297125510769E+00  2.418383462016E+00
 O  -1.866021259250E+00 -3.336330500443E+00  2.493188951047E+00
 O   1.856861386169E+00 -1.082163104104E+00  8.490980425592E-01
 O   2.847813839482E-02  2.193455423904E+00  8.353017382033E-01
 O   3.757847952546E+00 -4.391406534868E+00  8.541010331306E-01
 O   5.680780712850E+00 -1.088427285336E+00  8.694440829432E-01
 O   3.753457067686E+00  2.162378949760E+00  8.495333968767E-01
 O   7.432611978783E+00 -4.284258739091E+00  9.185666536531E-01
 O  -1.888218072989E+00 -1.122700784733E+00  8.870211952067E-01
 O  -3.792293070306E+00  2.194905202188E+00  8.489791048543E-01
 O   5.895177532260E-02 -4.306953064945E+00  9.135342357257E-01
 CE  4.001627224176E-03 -3.671760832460E-03  1.364101116923E-02
 CE -1.882970579085E+00  3.257577004622E+00 -5.409628939024E-03
 CE  1.877208080235E+00 -3.251251666921E+00  3.461784390082E-02
 CE  3.754315293367E+00  3.020217205509E-03  1.992165313292E-02
 CE  1.875883525007E+00  3.300642884334E+00  4.913057531036E-02
 CE  5.638607697215E+00 -3.258255392116E+00  3.260008285731E-02
 CE -3.761410020877E+00 -3.728647244347E-04  7.118317553143E-03
 CE -5.634758719637E+00  3.276408929017E+00  4.491253684605E-02
 CE -1.900940894060E+00 -3.270305319415E+00  7.809132588753E-02
 O  -1.884648921079E+00  1.080811118065E+00 -7.579748331330E-01
 O  -3.763692480171E+00  4.368457867799E+00 -7.641281615780E-01
 O  -1.424144740685E-02 -2.184121977161E+00 -7.564967553548E-01
 O   1.884235059938E+00  1.098953527777E+00 -7.615583239331E-01
 O   8.925379725755E-03  4.372920599924E+00 -7.664136064728E-01
 O   3.762696602050E+00 -2.173815281920E+00 -7.470127280040E-01
 O  -5.649601165746E+00  1.078450242344E+00 -7.549714485848E-01
 O  -7.523154532783E+00  4.374446604770E+00 -7.075374693320E-01
 O  -3.765963872260E+00 -2.186503460137E+00 -7.615264202056E-01
 O   0.000000000000E+00  0.000000000000E+00 -2.343480358560E+00
 O  -1.875026598269E+00  3.267885386142E+00 -2.343480358560E+00
 O   1.875026598273E+00 -3.267885386137E+00 -2.343480358560E+00
 O   3.763372811010E+00  7.698456419438E-03 -2.343480358560E+00
 O   1.888346212733E+00  3.275583842561E+00 -2.343480358560E+00
 O   5.638399409295E+00 -3.260186929718E+00 -2.343480358560E+00
 O  -3.763372811010E+00 -7.698456429437E-03 -2.343480358560E+00
 O  -5.638399409295E+00  3.260186929718E+00 -2.343480358560E+00
 O  -1.888346212739E+00 -3.275583842557E+00 -2.343480358560E+00
 CE -1.879466469761E+00  1.086728976571E+00 -3.124640478080E+00
 CE -3.754493068025E+00  4.354614362719E+00 -3.124640478080E+00
 CE -4.439871486225E-03 -2.181156409566E+00 -3.124640478080E+00
 CE  1.883906341248E+00  1.094427432994E+00 -3.124640478080E+00
 CE  8.879742976449E-03  4.362312819136E+00 -3.124640478080E+00
 CE  3.758932939523E+00 -2.173457953146E+00 -3.124640478080E+00
 CE -5.642839280810E+00  1.079030520139E+00 -3.124640478080E+00
 CE -7.517865879041E+00  4.346915906301E+00 -3.124640478080E+00
 CE -3.767812682498E+00 -2.188854865990E+00 -3.124640478080E+00
 O   1.879466469761E+00 -1.086728976571E+00 -3.905800597599E+00
 O   4.439871486225E-03  2.181156409566E+00 -3.905800597599E+00
 O   3.754493068025E+00 -4.354614362719E+00 -3.905800597599E+00
 O   5.642839280810E+00 -1.079030520139E+00 -3.905800597599E+00
 O   3.767812682502E+00  2.188854865991E+00 -3.905800597599E+00
 O   7.517865879041E+00 -4.346915906301E+00 -3.905800597599E+00
 O  -1.883906341248E+00 -1.094427432994E+00 -3.905800597599E+00
 O  -3.758932939525E+00  2.173457953146E+00 -3.905800597599E+00
 O  -8.879742977450E-03 -4.362312819136E+00 -3.905800597599E+00
 O   5.783787190803E-01 -4.471933888803E+00  5.876382758582E+00
 H   3.976298277436E+00  4.322824895816E+00  5.316306261025E+00
 H   7.891007289444E-01 -5.418537248887E+00  6.080176576715E+00
 H  -1.234255023742E-01 -4.120435092121E+00  6.498651972388E+00
 O   2.357494922589E+00  2.355129013767E+00  6.412255114167E+00
 H   2.030772324450E+00  1.819981653181E+00  5.596033237004E+00
 H   1.840460350014E+00  2.078796223564E+00  7.186730678322E+00
 O   3.852756208541E+00 -1.361958035572E+00  5.003894901758E+00
 H   4.065496268434E+00 -6.397755743468E-01  5.681807398476E+00
 H   3.659607381777E+00 -2.230378686118E+00  5.477648854929E+00
 O  -6.594525998988E+00  6.953669638148E-01  6.415004176600E+00
 H  -6.181595549482E+00  9.364353329102E-01  5.524400282184E+00
 H   3.952548783122E+00  1.342648436352E+00  6.579617470230E+00
 H   2.094990911421E+00  4.103525790564E+00  6.244919692607E+00
 O   7.541415258448E+00 -4.722423044490E+00  6.173672866345E+00
 H   6.668470954699E+00 -4.643847961332E+00  6.621824568954E+00
 H   2.247477369581E+00 -3.935491759734E+00  5.840429532912E+00
 O   3.206812226225E+00 -3.733340797501E+00  5.657665981518E+00
 H   3.783068468325E+00 -4.348590314460E+00  6.224517401373E+00
 H  -1.503162287461E+00 -3.526693950165E+00  8.228904309605E+00
 O  -1.494063081616E+00 -3.542096675533E+00  7.258574213196E+00
 H  -2.373751026783E+00 -3.880301255241E+00  6.963256095973E+00
 O  -1.730216729630E+00  1.810994886545E+00  6.663510741343E+00
 H  -1.754559548381E+00  1.418994395118E+00  5.715288926554E+00
 H  -1.668636530662E+00  1.084427524011E+00  7.302903348061E+00
 H  -4.525453071233E-01  4.239815435335E+00  5.673104968895E+00
 O  -7.057181267323E-01  4.411698410545E+00  6.642447408443E+00
 H  -1.035086614432E+00  3.542538713035E+00  6.962656918480E+00
 O   1.386621492748E+00  1.244831847416E+01  6.134490301270E+00
 H   2.280153162518E+00  1.223889370758E+01  6.512774236980E+00
 H   7.646373024359E-01  1.181202205312E+01  6.540168274242E+00
