  111
Ceria bulk                              
 O  -1.919673733641E+00  1.117473028166E+00  4.175296943626E+00
 O  -3.769750700644E+00  4.230930868699E+00  4.024464152223E+00
 O  -1.001494799970E-01 -2.070871651609E+00  4.518252189826E+00
 O   1.874651216654E+00  1.262973276247E+00  4.202351342820E+00
 O  -1.223002282650E-01  4.270881535926E+00  4.161852423801E+00
 O  -5.644704336066E+00  1.154171644525E+00  4.157035888755E+00
 O  -7.458620788085E+00  4.317744703918E+00  4.113344611233E+00
 O  -3.777783419617E+00 -1.979442362112E+00  4.099111343752E+00
 CE  1.880186738360E+00 -9.906243595120E-01  3.358701989263E+00
 CE  1.431332080200E-02  2.200285657845E+00  3.224901018738E+00
 CE  3.748101336435E+00 -4.587878644369E+00  3.253952408673E+00
 CE  5.775014212605E+00 -9.978187942770E-01  3.247593416940E+00
 CE  3.790508892968E+00  2.251706762843E+00  3.200825791607E+00
 CE  7.589355702683E+00 -4.367344041658E+00  3.465740858624E+00
 CE -1.943645355009E+00 -1.043689233039E+00  3.253471989590E+00
 CE -3.786981899139E+00  2.186703115195E+00  3.217513567417E+00
 CE  1.341760136900E-02 -4.501896837782E+00  3.380192002392E+00
 O  -3.328758876400E-02 -5.924320805000E-03  2.490304014311E+00
 O  -1.883770281547E+00  3.248203985024E+00  2.391010216983E+00
 O   1.949087068292E+00 -3.286428682477E+00  2.750978941951E+00
 O   3.842932210470E+00 -1.183379521900E-02  2.507414834689E+00
 O   1.900012132248E+00  3.310732065241E+00  2.441517182127E+00
 O   5.420735936912E+00 -3.163827632112E+00  2.799480936147E+00
 O  -3.790041187955E+00  6.659513056300E-02  2.403277256864E+00
 O  -5.689304246176E+00  3.296968378530E+00  2.412801066641E+00
 O  -1.769321526495E+00 -3.249677003088E+00  2.588570971157E+00
 O   1.895830265681E+00 -1.115024892359E+00  8.912674206820E-01
 O   1.698381895600E-02  2.190911553035E+00  8.680606324430E-01
 O   3.784420802173E+00 -4.417411423779E+00  9.145508722690E-01
 O   5.723404348631E+00 -1.127607225900E+00  8.981204528690E-01
 O   3.785631306134E+00  2.192545295885E+00  8.795072389530E-01
 O   7.522843945146E+00 -4.304184463092E+00  9.738055003160E-01
 O  -1.915035837478E+00 -1.105599781499E+00  8.936797777320E-01
 O  -3.794963944929E+00  2.218682627700E+00  8.282238862470E-01
 O   5.571058641400E-02 -4.382947157888E+00  9.477767930120E-01
 CE  1.334399918200E-02 -8.935527869000E-03  4.825224261600E-02
 CE -1.896890708748E+00  3.300749626722E+00  1.576041538200E-02
 CE  1.894077605846E+00 -3.295396542634E+00  6.421265053000E-02
 CE  3.786216554004E+00 -8.375202597000E-03  5.510904457300E-02
 CE  1.890035158563E+00  3.323900758131E+00  6.946053922200E-02
 CE  5.692531945326E+00 -3.296014128812E+00  5.390318726900E-02
 CE -3.791216017359E+00  6.295832159000E-03  5.676786491000E-03
 CE -5.681832153639E+00  3.322574701670E+00  4.383584557900E-02
 CE -1.897755851921E+00 -3.291238471308E+00  1.059299170870E-01
 O  -1.886631683282E+00  1.098060979887E+00 -7.544817101350E-01
 O  -3.793673882444E+00  4.431442749018E+00 -7.508483856780E-01
 O  -3.143008888000E-03 -2.210509469967E+00 -7.252159417180E-01
 O   1.903081273927E+00  1.101091383544E+00 -7.343244644220E-01
 O   5.530251215000E-03  4.425115951654E+00 -7.322395360090E-01
 O   3.798194560037E+00 -2.207420736351E+00 -7.300458793520E-01
 O  -5.700416256074E+00  1.098351490526E+00 -7.421832680170E-01
 O  -7.597128601053E+00  4.443802378394E+00 -6.919330403660E-01
 O  -3.789346720129E+00 -2.201734902739E+00 -7.537183946180E-01
 O   0.000000000000E+00  0.000000000000E+00 -2.343480358560E+00
 O  -1.897505568324E+00  3.305717308063E+00 -2.343480358560E+00
 O   1.897505568328E+00 -3.305717308058E+00 -2.343480358560E+00
 O   3.792550020814E+00 -1.353463191000E-03 -2.343480358560E+00
 O   1.895044452481E+00  3.304363844874E+00 -2.343480358560E+00
 O   5.690055589153E+00 -3.307070771249E+00 -2.343480358560E+00
 O  -3.792550020814E+00  1.353463181000E-03 -2.343480358560E+00
 O  -5.690055589153E+00  3.307070771249E+00 -2.343480358560E+00
 O  -1.895044452487E+00 -3.304363844870E+00 -2.343480358560E+00
 CE -1.896685196380E+00  1.102356923748E+00 -3.124640478080E+00
 CE -3.794190764701E+00  4.408074231818E+00 -3.124640478080E+00
 CE  8.203719489998E-04 -2.203360384310E+00 -3.124640478080E+00
 CE  1.895864824432E+00  1.101003460563E+00 -3.124640478080E+00
 CE -1.640743895001E-03  4.406720768625E+00 -3.124640478080E+00
 CE  3.793370392762E+00 -2.204713847501E+00 -3.124640478080E+00
 CE -5.689235217233E+00  1.103710386924E+00 -3.124640478080E+00
 CE -7.586740785518E+00  4.409427695009E+00 -3.124640478080E+00
 CE -3.791729648867E+00 -2.202006921125E+00 -3.124640478080E+00
 O   1.896685196380E+00 -1.102356923748E+00 -3.905800597599E+00
 O  -8.203719489998E-04  2.203360384310E+00 -3.905800597599E+00
 O   3.794190764701E+00 -4.408074231818E+00 -3.905800597599E+00
 O   5.689235217233E+00 -1.103710386924E+00 -3.905800597599E+00
 O   3.791729648871E+00  2.202006921126E+00 -3.905800597599E+00
 O   7.586740785518E+00 -4.409427695009E+00 -3.905800597599E+00
 O  -1.895864824432E+00 -1.101003460563E+00 -3.905800597599E+00
 O  -3.793370392764E+00  2.204713847501E+00 -3.905800597599E+00
 O   1.640743894000E-03 -4.406720768625E+00 -3.905800597599E+00
 O   5.787605175380E-01 -4.524265311869E+00  6.094841495104E+00
 H   5.369066593285E+00  7.745251478063E+00  5.465197505580E+00
 H   6.480915987180E-01 -5.431096002013E+00  6.497695930633E+00
 H  -1.085425047740E-01 -4.038950578329E+00  6.620434770166E+00
 O   2.408831332753E+00  2.313357021314E+00  6.583223663720E+00
 H   2.067430443283E+00  1.857763770433E+00  5.749338690388E+00
 H   1.761244261538E+00  2.131607385496E+00  7.285281406564E+00
 O   3.930045694920E+00 -1.329302805108E+00  5.202080448778E+00
 H   4.159701535578E+00 -6.246329588160E-01  5.885205424220E+00
 H   3.758928108898E+00 -2.204157726431E+00  5.656851827212E+00
 O  -6.611148295639E+00  8.240142892940E-01  6.625639220113E+00
 H  -6.186108812028E+00  1.058071245586E+00  5.745645221055E+00
 H   3.955203028386E+00  1.380117340380E+00  6.730022655349E+00
 H   2.491188401982E+00  4.297193322488E+00  6.291138532340E+00
 O   7.818784117533E+00 -4.704754199403E+00  6.227586140524E+00
 H   6.945921470094E+00 -4.777922189016E+00  6.686219840955E+00
 H   2.365834420938E+00 -4.044529503545E+00  6.007838134475E+00
 O   3.309236011632E+00 -3.807186555040E+00  5.802661187886E+00
 H   3.915985230115E+00 -4.395693856425E+00  6.357227287730E+00
 H  -1.525380912639E+00 -2.807434278732E+00  8.043745081374E+00
 O  -1.469118029514E+00 -3.033573729667E+00  7.101330357287E+00
 H  -2.282014217745E+00 -3.554742920030E+00  6.879613004030E+00
 O  -1.083112886101E+00  1.722553250389E+00  6.791025063945E+00
 H  -1.525134993709E+00  1.451917191843E+00  5.943436867391E+00
 H  -1.560025123847E+00  1.282533697369E+00  7.511133129102E+00
 H  -3.405711923530E-01  4.332575910301E+00  5.761817766218E+00
 O  -5.319176900220E-01  4.500554502195E+00  6.741251689326E+00
 H  -7.986917390180E-01  3.609291338568E+00  7.067159128273E+00
 O   8.351091079930E-01  1.288795091347E+01  7.458656030639E+00
 H   9.496495426390E-01  1.302036399581E+01  8.413473788524E+00
 H   2.620155286280E-01  1.209504921324E+01  7.357841936887E+00
