  110
Ceria bulk                              
 O  -1.918741695486E+00  1.130495603835E+00  3.991375409373E+00
 O  -3.621401547792E+00  4.204628214549E+00  4.170149025891E+00
 O  -2.294063176500E-02 -2.077428083938E+00  4.080225718843E+00
 O   1.807269034042E+00  1.062756665398E+00  4.081213512191E+00
 O   1.939910616100E-02  4.317442133547E+00  4.099362544472E+00
 O  -5.548948820732E+00  1.159798229581E+00  4.166398409812E+00
 O  -7.646380147199E+00  4.437631186131E+00  3.919443857759E+00
 O  -3.706832017102E+00 -2.293108877840E+00  4.195853882052E+00
 CE  1.780141953636E+00 -9.901563123450E-01  3.190018075904E+00
 CE -1.316815204200E-02  2.169750962636E+00  3.240220763473E+00
 CE  3.807967700298E+00 -4.513188549654E+00  3.202390441707E+00
 CE  5.749862800252E+00 -1.045185379046E+00  3.213342604653E+00
 CE  3.783526811456E+00  2.206566198881E+00  3.308392833319E+00
 CE  7.585983290187E+00 -4.368905865752E+00  3.185428965957E+00
 CE -1.878775898234E+00 -1.060681392924E+00  3.257614554865E+00
 CE -3.765972284608E+00  2.156239706343E+00  3.172041217985E+00
 CE -1.675497397000E-03 -4.332252466930E+00  3.290335406471E+00
 O  -2.785501219000E-02  2.600176030200E-02  2.384074019275E+00
 O  -1.851569496918E+00  3.270585528901E+00  2.362068132903E+00
 O   2.106505068635E+00 -3.183599669163E+00  2.624230807874E+00
 O   3.744239628718E+00 -1.244955703790E-01  2.560819012934E+00
 O   1.840573491951E+00  3.238544709238E+00  2.396912466764E+00
 O   5.544658935730E+00 -3.272029482637E+00  2.512736834719E+00
 O  -3.741029975991E+00 -3.285565624600E-02  2.389606050917E+00
 O  -5.632743102680E+00  3.273900185077E+00  2.425084696862E+00
 O  -1.892864524758E+00 -3.189722543311E+00  2.382534640339E+00
 O   1.860500562159E+00 -1.090845314134E+00  8.468562915530E-01
 O  -5.295684182000E-03  2.170414564476E+00  8.134401133100E-01
 O   3.763735875735E+00 -4.387664778032E+00  8.322753127660E-01
 O   5.664853445266E+00 -1.093330737808E+00  8.198643198320E-01
 O   3.781478021625E+00  2.129146059767E+00  8.986876427400E-01
 O   7.527435302463E+00 -4.346297910392E+00  8.789312228110E-01
 O  -1.871058058997E+00 -1.070845602641E+00  8.098392490780E-01
 O  -3.769160473139E+00  2.176497068136E+00  8.353726369570E-01
 O   7.664959920200E-02 -4.308781661277E+00  8.931136663410E-01
 CE -9.935742366000E-03  6.375855353000E-03  4.883610725000E-03
 CE -1.884234226790E+00  3.263667500828E+00 -2.653012644000E-03
 CE  1.900755921051E+00 -3.268348028384E+00  3.912826804700E-02
 CE  3.779367265720E+00 -2.867007103000E-03  5.335190269900E-02
 CE  1.886582633208E+00  3.254551489189E+00  5.585917770300E-02
 CE  5.655857551081E+00 -3.271001081319E+00  3.953553884100E-02
 CE -3.772922958475E+00 -5.051767274000E-03  1.307374964400E-02
 CE -5.663868604887E+00  3.278039240203E+00  6.528657276600E-02
 CE -1.870478617355E+00 -3.248721174902E+00  4.974066222500E-02
 O  -1.889621598304E+00  1.096837631594E+00 -8.052121208720E-01
 O  -3.787594708291E+00  4.364002071874E+00 -7.819281010110E-01
 O   1.112753867800E-02 -2.186645920579E+00 -7.895308712600E-01
 O   1.904042953424E+00  1.089046636773E+00 -7.762259152620E-01
 O   4.839350626000E-03  4.367072517185E+00 -7.769297857030E-01
 O   3.772423668482E+00 -2.184532025517E+00 -7.681846545590E-01
 O  -5.675517563794E+00  1.106579349849E+00 -7.726788700510E-01
 O  -7.545564654363E+00  4.368798035261E+00 -7.310305313040E-01
 O  -3.772960726329E+00 -2.190655672660E+00 -7.770996516210E-01
 O   0.000000000000E+00  0.000000000000E+00 -2.343480358560E+00
 O  -1.891523689771E+00  3.270947885314E+00 -2.343480358560E+00
 O   1.891523689776E+00 -3.270947885309E+00 -2.343480358560E+00
 O   3.775832727273E+00 -4.163040890000E-03 -2.343480358560E+00
 O   1.884309037498E+00  3.266784844430E+00 -2.343480358560E+00
 O   5.667356417058E+00 -3.275110926199E+00 -2.343480358560E+00
 O  -3.775832727273E+00  4.163040880000E-03 -2.343480358560E+00
 O  -5.667356417058E+00  3.275110926199E+00 -2.343480358560E+00
 O  -1.884309037504E+00 -3.266784844425E+00 -2.343480358560E+00
 CE -1.889118805683E+00  1.091703642066E+00 -3.124640478080E+00
 CE -3.780642495448E+00  4.362651527381E+00 -3.124640478080E+00
 CE  2.404884093000E-03 -2.179244243245E+00 -3.124640478080E+00
 CE  1.886713921592E+00  1.087540601180E+00 -3.124640478080E+00
 CE -4.809768182000E-03  4.358488486495E+00 -3.124640478080E+00
 CE  3.778237611367E+00 -2.183407284132E+00 -3.124640478080E+00
 CE -5.664951532998E+00  1.095866682939E+00 -3.124640478080E+00
 CE -7.556475222731E+00  4.366814568275E+00 -3.124640478080E+00
 CE -3.773427843187E+00 -2.175081202359E+00 -3.124640478080E+00
 O   1.889118805683E+00 -1.091703642066E+00 -3.905800597599E+00
 O  -2.404884093000E-03  2.179244243245E+00 -3.905800597599E+00
 O   3.780642495448E+00 -4.362651527381E+00 -3.905800597599E+00
 O   5.664951532998E+00 -1.095866682939E+00 -3.905800597599E+00
 O   3.773427843191E+00  2.175081202360E+00 -3.905800597599E+00
 O   7.556475222731E+00 -4.366814568275E+00 -3.905800597599E+00
 O  -1.886713921592E+00 -1.087540601180E+00 -3.905800597599E+00
 O  -3.778237611368E+00  2.183407284132E+00 -3.905800597599E+00
 O   4.809768180000E-03 -4.358488486495E+00 -3.905800597599E+00
 O   1.415972857884E+00  4.376042636891E+00  6.238767310959E+00
 H   7.216930195950E-01  4.399773600612E+00  5.479996065133E+00
 H   6.857458710737E+00 -4.767910021097E+00  6.899514464446E+00
 O   3.881060974372E+00  2.739825269012E+00  5.970044562636E+00
 H   4.128839033293E+00  2.023223550060E+00  6.588605007587E+00
 H   3.064890389667E+00  3.208545030645E+00  6.247845254566E+00
 H  -1.122946817660E+00 -1.881844121403E+00  5.902800534678E+00
 O  -1.963204003517E+00 -1.388659454835E+00  5.945873746757E+00
 H  -2.658984308753E+00 -2.014296622640E+00  5.630206734097E+00
 H  -4.733039319847E+00  4.542437997930E+00  5.698220290320E+00
 O   7.919878367900E-02 -4.828806211382E+00  5.864868904053E+00
 H  -6.262704336705E+00  4.265565986274E+00  5.964401468279E+00
 O   2.179807748903E+00 -1.745401814601E+00  5.612819428955E+00
 H   1.247257904521E+00 -2.053339394045E+00  5.571980182471E+00
 H   2.729606002746E+00 -2.547489306657E+00  5.811326008611E+00
 O   5.661216214004E+00 -1.844760256492E+00  5.794113239086E+00
 H   6.581091718610E+00 -2.073521028927E+00  5.433810637911E+00
 H   5.688958266021E+00 -9.934999364060E-01  6.320779442322E+00
 H   4.663217273641E+00 -3.147433404747E+00  5.932566270259E+00
 O   3.900138228115E+00 -3.743589651075E+00  5.689366297974E+00
 H   3.908156952426E+00 -4.622063867915E+00  6.171751955015E+00
 O   2.085239505390E-01  1.916304091966E+00  6.019592234123E+00
 H   9.206432614660E-01  1.329648595143E+00  5.663499959809E+00
 H   6.806704161200E-01  2.704361247675E+00  6.366856362152E+00
 O   5.647779734565E+00  6.843080890620E-01  6.678782130032E+00
 H  -5.567974207320E+00  9.565691117350E-01  5.683466044481E+00
 H  -4.887937806179E+00  1.013625591280E+00  7.144518907170E+00
 O   3.437690516537E+00  1.334994365882E+01  6.437810596905E+00
 H   2.881196170972E+00  1.343242050050E+01  5.619144562533E+00
 H   4.068591254460E+00  1.261865138446E+01  6.273314876724E+00
  110
Ceria bulk                              
 O  -1.918741695486E+00  1.130495603835E+00  3.991375409373E+00
 O  -3.621401547792E+00  4.204628214549E+00  4.170149025891E+00
 O  -2.294063176479E-02 -2.077428083938E+00  4.080225718843E+00
 O   1.807269034042E+00  1.062756665398E+00  4.081213512191E+00
 O   1.939910616084E-02  4.317442133547E+00  4.099362544472E+00
 O  -5.548948820732E+00  1.159798229581E+00  4.166398409812E+00
 O  -7.646380147199E+00  4.437631186131E+00  3.919443857759E+00
 O  -3.706832017102E+00 -2.293108877840E+00  4.195853882052E+00
 CE  1.780141953636E+00 -9.901563123446E-01  3.190018075904E+00
 CE -1.316815204213E-02  2.169750962636E+00  3.240220763473E+00
 CE  3.807967700298E+00 -4.513188549654E+00  3.202390441707E+00
 CE  5.749862800252E+00 -1.045185379046E+00  3.213342604653E+00
 CE  3.783526811456E+00  2.206566198881E+00  3.308392833319E+00
 CE  7.585983290187E+00 -4.368905865752E+00  3.185428965957E+00
 CE -1.878775898234E+00 -1.060681392924E+00  3.257614554865E+00
 CE -3.765972284608E+00  2.156239706343E+00  3.172041217985E+00
 CE -1.675497396955E-03 -4.332252466930E+00  3.290335406471E+00
 O  -2.785501219023E-02  2.600176030243E-02  2.384074019275E+00
 O  -1.851569496918E+00  3.270585528901E+00  2.362068132903E+00
 O   2.106505068635E+00 -3.183599669163E+00  2.624230807874E+00
 O   3.744239628718E+00 -1.244955703786E-01  2.560819012934E+00
 O   1.840573491951E+00  3.238544709238E+00  2.396912466764E+00
 O   5.544658935730E+00 -3.272029482637E+00  2.512736834719E+00
 O  -3.741029975990E+00 -3.285565624641E-02  2.389606050917E+00
 O  -5.632743102680E+00  3.273900185077E+00  2.425084696862E+00
 O  -1.892864524758E+00 -3.189722543311E+00  2.382534640339E+00
 O   1.860500562159E+00 -1.090845314134E+00  8.468562915528E-01
 O  -5.295684182252E-03  2.170414564476E+00  8.134401133102E-01
 O   3.763735875735E+00 -4.387664778032E+00  8.322753127658E-01
 O   5.664853445266E+00 -1.093330737808E+00  8.198643198324E-01
 O   3.781478021625E+00  2.129146059767E+00  8.986876427401E-01
 O   7.527435302463E+00 -4.346297910392E+00  8.789312228112E-01
 O  -1.871058058997E+00 -1.070845602641E+00  8.098392490778E-01
 O  -3.769160473139E+00  2.176497068136E+00  8.353726369567E-01
 O   7.664959920183E-02 -4.308781661277E+00  8.931136663409E-01
 CE -9.935742365577E-03  6.375855353418E-03  4.883610725007E-03
 CE -1.884234226790E+00  3.263667500828E+00 -2.653012643835E-03
 CE  1.900755921051E+00 -3.268348028384E+00  3.912826804738E-02
 CE  3.779367265720E+00 -2.867007103058E-03  5.335190269899E-02
 CE  1.886582633208E+00  3.254551489189E+00  5.585917770348E-02
 CE  5.655857551081E+00 -3.271001081319E+00  3.953553884131E-02
 CE -3.772922958475E+00 -5.051767273718E-03  1.307374964376E-02
 CE -5.663868604887E+00  3.278039240203E+00  6.528657276622E-02
 CE -1.870478617355E+00 -3.248721174902E+00  4.974066222504E-02
 O  -1.889621598304E+00  1.096837631594E+00 -8.052121208721E-01
 O  -3.787594708291E+00  4.364002071874E+00 -7.819281010107E-01
 O   1.112753867845E-02 -2.186645920579E+00 -7.895308712597E-01
 O   1.904042953424E+00  1.089046636773E+00 -7.762259152622E-01
 O   4.839350625665E-03  4.367072517185E+00 -7.769297857029E-01
 O   3.772423668482E+00 -2.184532025517E+00 -7.681846545586E-01
 O  -5.675517563795E+00  1.106579349849E+00 -7.726788700513E-01
 O  -7.545564654363E+00  4.368798035261E+00 -7.310305313037E-01
 O  -3.772960726329E+00 -2.190655672660E+00 -7.770996516207E-01
 O   0.000000000000E+00  0.000000000000E+00 -2.343480358560E+00
 O  -1.891523689771E+00  3.270947885314E+00 -2.343480358560E+00
 O   1.891523689776E+00 -3.270947885309E+00 -2.343480358560E+00
 O   3.775832727273E+00 -4.163040889696E-03 -2.343480358560E+00
 O   1.884309037498E+00  3.266784844430E+00 -2.343480358560E+00
 O   5.667356417058E+00 -3.275110926199E+00 -2.343480358560E+00
 O  -3.775832727273E+00  4.163040879696E-03 -2.343480358560E+00
 O  -5.667356417058E+00  3.275110926199E+00 -2.343480358560E+00
 O  -1.884309037504E+00 -3.266784844425E+00 -2.343480358560E+00
 CE -1.889118805683E+00  1.091703642066E+00 -3.124640478080E+00
 CE -3.780642495448E+00  4.362651527381E+00 -3.124640478080E+00
 CE  2.404884093485E-03 -2.179244243245E+00 -3.124640478080E+00
 CE  1.886713921592E+00  1.087540601180E+00 -3.124640478080E+00
 CE -4.809768181969E-03  4.358488486495E+00 -3.124640478080E+00
 CE  3.778237611367E+00 -2.183407284132E+00 -3.124640478080E+00
 CE -5.664951532998E+00  1.095866682939E+00 -3.124640478080E+00
 CE -7.556475222731E+00  4.366814568275E+00 -3.124640478080E+00
 CE -3.773427843187E+00 -2.175081202359E+00 -3.124640478080E+00
 O   1.889118805683E+00 -1.091703642066E+00 -3.905800597599E+00
 O  -2.404884093485E-03  2.179244243245E+00 -3.905800597599E+00
 O   3.780642495448E+00 -4.362651527381E+00 -3.905800597599E+00
 O   5.664951532998E+00 -1.095866682939E+00 -3.905800597599E+00
 O   3.773427843191E+00  2.175081202361E+00 -3.905800597599E+00
 O   7.556475222731E+00 -4.366814568275E+00 -3.905800597599E+00
 O  -1.886713921592E+00 -1.087540601180E+00 -3.905800597599E+00
 O  -3.778237611368E+00  2.183407284132E+00 -3.905800597599E+00
 O   4.809768179967E-03 -4.358488486495E+00 -3.905800597599E+00
 O   1.415972857884E+00  4.376042636891E+00  6.238767310959E+00
 H   7.216930195953E-01  4.399773600612E+00  5.479996065133E+00
 H   6.857458710737E+00 -4.767910021097E+00  6.899514464445E+00
 O   3.881060974372E+00  2.739825269012E+00  5.970044562636E+00
 H   4.128839033293E+00  2.023223550060E+00  6.588605007587E+00
 H   3.064890389667E+00  3.208545030645E+00  6.247845254566E+00
 H  -1.122946817660E+00 -1.881844121403E+00  5.902800534678E+00
 O  -1.963204003517E+00 -1.388659454835E+00  5.945873746757E+00
 H  -2.658984308753E+00 -2.014296622640E+00  5.630206734097E+00
 H  -4.733039319847E+00  4.542437997930E+00  5.698220290320E+00
 O   7.919878367923E-02 -4.828806211382E+00  5.864868904052E+00
 H  -6.262704336705E+00  4.265565986274E+00  5.964401468279E+00
 O   2.179807748903E+00 -1.745401814601E+00  5.612819428955E+00
 H   1.247257904521E+00 -2.053339394045E+00  5.571980182471E+00
 H   2.729606002746E+00 -2.547489306657E+00  5.811326008611E+00
 O   5.661216214003E+00 -1.844760256492E+00  5.794113239086E+00
 H   6.581091718610E+00 -2.073521028927E+00  5.433810637911E+00
 H   5.688958266021E+00 -9.934999364056E-01  6.320779442322E+00
 H   4.663217273641E+00 -3.147433404747E+00  5.932566270258E+00
 O   3.900138228115E+00 -3.743589651075E+00  5.689366297974E+00
 H   3.908156952426E+00 -4.622063867915E+00  6.171751955015E+00
 O   2.085239505386E-01  1.916304091966E+00  6.019592234123E+00
 H   9.206432614664E-01  1.329648595143E+00  5.663499959809E+00
 H   6.806704161196E-01  2.704361247675E+00  6.366856362152E+00
 O   5.647779734565E+00  6.843080890622E-01  6.678782130032E+00
 H  -5.567974207320E+00  9.565691117349E-01  5.683466044481E+00
 H  -4.887937806179E+00  1.013625591280E+00  7.144518907170E+00
 O   3.437690516537E+00  1.334994365882E+01  6.437810596905E+00
 H   2.881196170972E+00  1.343242050050E+01  5.619144562533E+00
 H   4.068591254460E+00  1.261865138446E+01  6.273314876724E+00
