  110
Ceria bulk                              
 O  -1.945055436510E+00  1.143881250093E+00  4.042394504507E+00
 O  -3.632862788189E+00  4.188778821553E+00  4.260495816926E+00
 O  -1.324259400800E-01 -2.262288161502E+00  4.093910715187E+00
 O   1.904482889661E+00  1.217746704734E+00  4.136999187482E+00
 O   3.751979594300E-02  4.363700523636E+00  4.150032552824E+00
 O  -5.632295387566E+00  1.204778529013E+00  4.205713075747E+00
 O  -7.689787889462E+00  4.482171250153E+00  3.944688260727E+00
 O  -3.744590512615E+00 -2.339506062584E+00  4.227565817121E+00
 CE  1.822067259768E+00 -1.022185052035E+00  3.286415779774E+00
 CE  8.348441014000E-03  2.186078713322E+00  3.296008851997E+00
 CE  3.823346506945E+00 -4.583353173767E+00  3.251095300594E+00
 CE  5.803781689644E+00 -1.029627401713E+00  3.242266942951E+00
 CE  3.807826884010E+00  2.230126994030E+00  3.326312940674E+00
 CE  7.627392571015E+00 -4.400761768679E+00  3.205871439967E+00
 CE -1.895813429677E+00 -1.083910712722E+00  3.308845977137E+00
 CE -3.786361578604E+00  2.175083605504E+00  3.220448074220E+00
 CE -5.963820387700E-02 -4.368811743637E+00  3.283081193075E+00
 O  -3.444764141800E-02  2.568789754900E-02  2.481288643231E+00
 O  -1.865559895552E+00  3.300720276364E+00  2.403421873711E+00
 O   2.043349185730E+00 -3.349963754638E+00  2.658663297263E+00
 O   3.829176749576E+00 -1.727110430900E-02  2.568092907676E+00
 O   1.889987692576E+00  3.297532735122E+00  2.423154254776E+00
 O   5.564227346854E+00 -3.298332741280E+00  2.572975754457E+00
 O  -3.773220102183E+00 -2.902371862400E-02  2.440093724983E+00
 O  -5.697677225143E+00  3.347614990733E+00  2.482983572533E+00
 O  -1.928466419244E+00 -3.266925909270E+00  2.396114817995E+00
 O   1.896451501961E+00 -1.121480640851E+00  8.621540015870E-01
 O   7.420117776000E-03  2.191539486940E+00  8.498517494710E-01
 O   3.802769743713E+00 -4.431935676076E+00  8.460012802100E-01
 O   5.725110443325E+00 -1.108207798354E+00  8.313369585290E-01
 O   3.829615070773E+00  2.184552682141E+00  9.196210127390E-01
 O   7.568604845758E+00 -4.375804670680E+00  8.948883209010E-01
 O  -1.888067433189E+00 -1.092791977100E+00  8.432799418250E-01
 O  -3.817106197454E+00  2.202097987218E+00  8.644994722090E-01
 O   4.357048957800E-02 -4.359127430618E+00  9.148080984250E-01
 CE  9.658301160000E-04 -1.886622331000E-03  4.747499960600E-02
 CE -1.899169313894E+00  3.293704129331E+00  1.809528621200E-02
 CE  1.916213529199E+00 -3.302543578917E+00  5.736719321500E-02
 CE  3.815427905570E+00  1.045825019000E-03  7.695402526900E-02
 CE  1.901013613841E+00  3.291789144795E+00  6.389104665400E-02
 CE  5.697552507975E+00 -3.300147087723E+00  4.747299704500E-02
 CE -3.806430042835E+00 -6.511056957000E-03  3.221067756600E-02
 CE -5.719284600440E+00  3.308107684639E+00  6.944546037300E-02
 CE -1.900359322064E+00 -3.280626753068E+00  5.079566572800E-02
 O  -1.905970113816E+00  1.107977213068E+00 -7.812213376870E-01
 O  -3.826663399455E+00  4.407273653389E+00 -7.655156074200E-01
 O   6.201989588000E-03 -2.212772088520E+00 -7.740378895110E-01
 O   1.926118419057E+00  1.104192262404E+00 -7.546618545300E-01
 O   2.482018971000E-03  4.405634902530E+00 -7.705632409330E-01
 O   3.808327115642E+00 -2.207341307014E+00 -7.582166140020E-01
 O  -5.729975890830E+00  1.116756210011E+00 -7.590862463050E-01
 O  -7.623333676743E+00  4.412563642038E+00 -7.261993363260E-01
 O  -3.810306282895E+00 -2.211081244554E+00 -7.715846131480E-01
 O   0.000000000000E+00  0.000000000000E+00 -2.343480358560E+00
 O  -1.907197358005E+00  3.304063989634E+00 -2.343480358560E+00
 O   1.907197358010E+00 -3.304063989629E+00 -2.343480358560E+00
 O   3.812465069685E+00 -1.114518761000E-03 -2.343480358560E+00
 O   1.905267711675E+00  3.302949470880E+00 -2.343480358560E+00
 O   5.719662427702E+00 -3.305178508392E+00 -2.343480358560E+00
 O  -3.812465069685E+00  1.114518751000E-03 -2.343480358560E+00
 O  -5.719662427702E+00  3.305178508392E+00 -2.343480358560E+00
 O  -1.905267711681E+00 -3.302949470875E+00 -2.343480358560E+00
 CE -1.906554142565E+00  1.101726169463E+00 -3.124640478080E+00
 CE -3.813751500563E+00  4.405790159101E+00 -3.124640478080E+00
 CE  6.432154449999E-04 -2.202337820168E+00 -3.124640478080E+00
 CE  1.905910927122E+00  1.100611650706E+00 -3.124640478080E+00
 CE -1.286430886000E-03  4.404675640343E+00 -3.124640478080E+00
 CE  3.813108285130E+00 -2.203452338927E+00 -3.124640478080E+00
 CE -5.719019212292E+00  1.102840688208E+00 -3.124640478080E+00
 CE -7.626216570257E+00  4.406904677865E+00 -3.124640478080E+00
 CE -3.811821854246E+00 -2.201223301413E+00 -3.124640478080E+00
 O   1.906554142565E+00 -1.101726169463E+00 -3.905800597599E+00
 O  -6.432154449999E-04  2.202337820168E+00 -3.905800597599E+00
 O   3.813751500563E+00 -4.405790159101E+00 -3.905800597599E+00
 O   5.719019212292E+00 -1.102840688208E+00 -3.905800597599E+00
 O   3.811821854250E+00  2.201223301414E+00 -3.905800597599E+00
 O   7.626216570257E+00 -4.406904677865E+00 -3.905800597599E+00
 O  -1.905910927122E+00 -1.100611650706E+00 -3.905800597599E+00
 O  -3.813108285132E+00  2.203452338927E+00 -3.905800597599E+00
 O   1.286430884000E-03 -4.404675640343E+00 -3.905800597599E+00
 O   1.380210256128E+00  4.404517201032E+00  6.407765410132E+00
 H   7.287387947170E-01  4.445666112824E+00  5.627203519493E+00
 H   6.818686396272E+00 -4.872736694828E+00  7.082221675768E+00
 O   3.965527790500E+00  2.823059835083E+00  6.089273705717E+00
 H   4.243980235904E+00  2.100604083056E+00  6.690080784014E+00
 H   3.132062950620E+00  3.236949154549E+00  6.390634910356E+00
 H  -1.321540826727E+00 -1.816493734527E+00  6.308912966153E+00
 O  -2.127886555689E+00 -1.338267587003E+00  6.056632047417E+00
 H  -2.751560690366E+00 -2.013214264437E+00  5.691345740450E+00
 H  -4.760706087336E+00  4.586773153421E+00  5.642628009480E+00
 O   1.096758482350E-01 -4.866494009891E+00  5.848542107927E+00
 H  -6.282823050327E+00  4.341454208765E+00  6.008089400600E+00
 O   1.946741538498E+00 -1.804564825628E+00  5.790777193883E+00
 H   1.058632122202E+00 -2.198032716297E+00  5.629393968054E+00
 H   2.551820686423E+00 -2.558057152604E+00  5.995503745426E+00
 O   5.687946897842E+00 -1.817999719361E+00  5.866425077645E+00
 H   6.600774445625E+00 -2.077546446512E+00  5.537625328495E+00
 H   5.738682712940E+00 -9.717980485520E-01  6.395721417366E+00
 H   4.616491559405E+00 -3.126305566525E+00  6.021470827062E+00
 O   3.861978507481E+00 -3.726625660603E+00  5.779968354981E+00
 H   3.882138669258E+00 -4.582631533043E+00  6.292262472491E+00
 O   2.367616425710E-01  1.896582703169E+00  6.171923680370E+00
 H   9.817464780390E-01  1.371499625298E+00  5.796226788524E+00
 H   6.694582634580E-01  2.707909287947E+00  6.516360385408E+00
 O   5.718671656851E+00  7.305325140590E-01  6.760236773043E+00
 H  -5.619284766987E+00  9.944774735790E-01  5.768970927331E+00
 H  -4.918127130076E+00  1.035178064741E+00  7.219605790256E+00
 O   3.462427495746E+00  1.355056512086E+01  6.633256058660E+00
 H   2.928281519482E+00  1.357866636956E+01  5.799379011835E+00
 H   4.094183890820E+00  1.281260982244E+01  6.522184551364E+00
