  110
Ceria bulk                              
 O  -1.862310394020E+00  1.103369924058E+00  4.137927077414E+00
 O  -3.729556263770E+00  4.367556461894E+00  4.142193390593E+00
 O   1.472026529900E-02 -2.134556064283E+00  4.138748585041E+00
 O   1.823102152089E+00  1.075996801502E+00  4.120729695266E+00
 O  -1.905177228900E-02  4.351689712422E+00  4.173442145154E+00
 O   3.736288916141E+00 -2.169809383189E+00  4.129641413928E+00
 O  -5.552132321680E+00  1.137803391364E+00  4.084475561045E+00
 O  -7.488329174435E+00  4.454343211379E+00  4.126926451254E+00
 O  -3.724143022945E+00 -2.142428284002E+00  4.137693252800E+00
 CE  1.877920594231E+00 -1.057607915999E+00  3.291316650136E+00
 CE  1.930789872000E-03  2.181894425850E+00  3.292538543163E+00
 CE  3.742863532824E+00 -4.310741157303E+00  3.300566201357E+00
 CE  5.628596035535E+00 -1.053638149694E+00  3.334194578197E+00
 CE  3.749679234971E+00  2.206424824369E+00  3.309777073653E+00
 CE  7.487565023283E+00 -4.292010568474E+00  3.303334705665E+00
 CE -1.874178067717E+00 -1.059006839609E+00  3.271883613876E+00
 CE -3.747148225207E+00  2.194245192730E+00  3.267182787808E+00
 CE -3.292012109000E-03 -4.295973627905E+00  3.265535865760E+00
 O  -1.422150495300E-02  7.631169757000E-03  2.444213443433E+00
 O  -1.861583464521E+00  3.271402208424E+00  2.464883797747E+00
 O   1.874811735784E+00 -3.224575988787E+00  2.462004881746E+00
 O   3.753651601821E+00 -1.252415551200E-02  2.491955564068E+00
 O   1.837380166889E+00  3.297997558882E+00  2.481640465574E+00
 O   5.616604864508E+00 -3.228400383056E+00  2.490651186906E+00
 O  -3.728112211890E+00  2.968665886000E-03  2.460704305828E+00
 O  -5.592758849719E+00  3.305331187031E+00  2.470138625302E+00
 O  -1.873757698851E+00 -3.197859654480E+00  2.445265775499E+00
 O   1.871069746160E+00 -1.066703904647E+00  8.984591104780E-01
 O   1.964355775000E-03  2.172029648965E+00  8.994044454140E-01
 O   3.752594624972E+00 -4.310716419743E+00  9.122282940110E-01
 O   5.623242778069E+00 -1.079679414725E+00  9.154984980200E-01
 O   3.713981752906E+00  2.164922906643E+00  9.168564270860E-01
 O   7.480801760823E+00 -4.302338147978E+00  9.069382983650E-01
 O  -1.872075753991E+00 -1.064881027057E+00  8.815058422500E-01
 O  -3.711791904311E+00  2.157478916674E+00  9.045816571220E-01
 O  -2.355156073000E-03 -4.271368128656E+00  8.988446736850E-01
 CE  2.167562474000E-03  1.195578074900E-02  6.490841331900E-02
 CE -1.869809922169E+00  3.260965169699E+00  7.210445310100E-02
 CE  1.873996896323E+00 -3.235573204573E+00  7.145614900500E-02
 CE  3.747472184211E+00  1.397102836000E-02  9.236838581300E-02
 CE  1.875725330390E+00  3.261829964831E+00  8.637400568900E-02
 CE  5.614759954805E+00 -3.231881790641E+00  8.499325889800E-02
 CE -3.746166784954E+00  8.296706669000E-03  7.103762838700E-02
 CE -5.618660265972E+00  3.257063725580E+00  8.072641823700E-02
 CE -1.875048116701E+00 -3.234647470587E+00  6.493562028000E-02
 O  -1.866365478545E+00  1.091513619400E+00 -7.794027150670E-01
 O  -3.708524247957E+00  4.357748896663E+00 -7.689178423820E-01
 O   2.414951543000E-03 -2.148865498723E+00 -7.827373568540E-01
 O   1.869881849676E+00  1.090864604481E+00 -7.702804215600E-01
 O   4.084913518000E-03  4.341099247542E+00 -7.642105628670E-01
 O   3.747088577462E+00 -2.154415629034E+00 -7.629966158470E-01
 O  -5.617427507650E+00  1.052393709600E+00 -7.651428050620E-01
 O  -7.518461494904E+00  4.353667942276E+00 -7.697612155860E-01
 O  -3.750738119771E+00 -2.159016683774E+00 -7.731609222720E-01
 O   0.000000000000E+00  0.000000000000E+00 -2.343480358560E+00
 O  -1.870479497731E+00  3.247169591275E+00 -2.343480358560E+00
 O   1.870479497737E+00 -3.247169591270E+00 -2.343480358560E+00
 O   3.743760593778E+00  1.620948336000E-03 -2.343480358560E+00
 O   1.873281096041E+00  3.248790539614E+00 -2.343480358560E+00
 O   5.614240091523E+00 -3.245548642934E+00 -2.343480358560E+00
 O  -3.743760593778E+00 -1.620948346000E-03 -2.343480358560E+00
 O  -5.614240091523E+00  3.245548642934E+00 -2.343480358560E+00
 O  -1.873281096046E+00 -3.248790539609E+00 -2.343480358560E+00
 CE -1.871413363838E+00  1.081849547644E+00 -3.124640478080E+00
 CE -3.741892861564E+00  4.329019138923E+00 -3.124640478080E+00
 CE -9.338661029998E-04 -2.165320043627E+00 -3.124640478080E+00
 CE  1.872347229940E+00  1.083470495984E+00 -3.124640478080E+00
 CE  1.867732206000E-03  4.330640087259E+00 -3.124640478080E+00
 CE  3.742826727677E+00 -2.163699095289E+00 -3.124640478080E+00
 CE -5.615173957657E+00  1.080228599291E+00 -3.124640478080E+00
 CE -7.485653455349E+00  4.327398190588E+00 -3.124640478080E+00
 CE -3.744694459883E+00 -2.166940991970E+00 -3.124640478080E+00
 O   1.871413363838E+00 -1.081849547644E+00 -3.905800597599E+00
 O   9.338661029998E-04  2.165320043627E+00 -3.905800597599E+00
 O   3.741892861564E+00 -4.329019138923E+00 -3.905800597599E+00
 O   5.615173957657E+00 -1.080228599291E+00 -3.905800597599E+00
 O   3.744694459887E+00  2.166940991970E+00 -3.905800597599E+00
 O   7.485653455349E+00 -4.327398190588E+00 -3.905800597599E+00
 O  -1.872347229940E+00 -1.083470495984E+00 -3.905800597599E+00
 O  -3.742826727679E+00  2.163699095289E+00 -3.905800597599E+00
 O  -1.867732208000E-03 -4.330640087259E+00 -3.905800597599E+00
 O   1.161658682452E+01  4.565325336269E+00  6.887306476730E+00
 H   1.139373153588E+01  4.452254856689E+00  5.934552367919E+00
 H   1.130359591061E+01  5.448809627789E+00  7.128109110661E+00
 O   1.299098239457E+00  1.218262587449E+00  6.849833498274E+00
 H   1.327921300754E+00  2.141866279127E+00  7.125497973522E+00
 H   1.619786111825E+00  1.198743618273E+00  5.922656226122E+00
 O   1.497013707404E+01  3.595387933515E+00  6.746784264602E+00
 H   1.495554016481E+01  4.150098463563E+00  5.931090115036E+00
 H   1.583898715099E+01  3.742930923311E+00  7.143963859175E+00
 O   3.837967833682E+00 -2.513223131982E+00  6.882420581920E+00
 H   3.821192056271E+00 -2.351117303879E+00  5.914607780681E+00
 H   4.201641274339E+00 -1.662124293198E+00  7.221724767208E+00
 H  -3.646537082517E+00 -2.077920901036E+00  6.075088915198E+00
 O  -3.381156494123E+00 -2.051194224092E+00  7.019208024538E+00
 H  -2.469381210360E+00 -2.422675490311E+00  7.029264863916E+00
 O  -2.711544038057E+00  1.205709713775E+00  6.743357786489E+00
 H  -2.262792246136E+00  1.143417188382E+00  5.864226606143E+00
 H  -2.305712527923E+00  5.062364459810E-01  7.282356417465E+00
 O  -5.588181572799E+00 -2.952563508450E-01  6.279892351939E+00
 H  -5.558683583415E+00  5.445905522630E-01  5.738223105908E+00
 H  -4.714509532301E+00 -3.542817688290E-01  6.741442910878E+00
 O  -4.168986975690E+00  3.875706856042E+00  6.851862298574E+00
 H  -3.930857828320E+00  4.117182791758E+00  5.916318058493E+00
 H  -3.555437073025E+00  3.152510677583E+00  7.062850119315E+00
 O   1.843660815257E+01  8.624547265492E+00  6.687200000000E+00
 H   1.751310369996E+01  8.986232162813E+00  6.862000000000E+00
 H   1.729233442820E+01  6.078837682128E+00  7.098600000000E+00
 O   1.661774202080E+01  6.633073134658E+00  6.657400000000E+00
 H   1.698320294638E+01  6.882091555621E+00  5.773400000000E+00
