  112
Ceria bulk                              
 O  -1.878737227365E+00  1.073730489962E+00  4.087003985831E+00
 O  -3.756471975693E+00  4.326055267889E+00  4.093258705991E+00
 O  -1.383476766500E-02 -2.168943053698E+00  4.080183836888E+00
 O   1.870004583731E+00  1.078969504305E+00  4.088879926637E+00
 O  -7.005421338000E-03  4.319359832511E+00  4.096680444828E+00
 O   3.741859796753E+00 -2.171925576215E+00  4.093606945528E+00
 O  -5.629225823037E+00  1.075531536940E+00  4.084585477466E+00
 O  -7.497398925092E+00  4.317735383401E+00  4.082433736333E+00
 O  -3.750804147541E+00 -2.169077093518E+00  4.093300497627E+00
 CE  1.867645798658E+00 -1.088009220390E+00  3.253225064613E+00
 CE -4.367188840000E-03  2.154888280197E+00  3.253056150567E+00
 CE  3.740879082316E+00 -4.332941080913E+00  3.254622039414E+00
 CE  5.617333943524E+00 -1.086697293453E+00  3.254939578913E+00
 CE  3.743806890383E+00  2.157766076585E+00  3.250596439054E+00
 CE  7.491837641909E+00 -4.334238375298E+00  3.252399371188E+00
 CE -1.878528763306E+00 -1.087477485927E+00  3.250370918524E+00
 CE -3.754207918257E+00  2.158129601930E+00  3.253528233883E+00
 CE -8.072866882000E-03 -4.330753085887E+00  3.250429405747E+00
 O  -4.293886272000E-03 -4.750151543000E-03  2.430904863942E+00
 O  -1.878724462627E+00  3.240056806358E+00  2.434413413502E+00
 O   1.868029926853E+00 -3.249821151700E+00  2.432809533872E+00
 O   3.743228321962E+00 -6.337466709000E-03  2.433709982755E+00
 O   1.869419529407E+00  3.239363723164E+00  2.431959027273E+00
 O   5.616382680976E+00 -3.251903231790E+00  2.435912114824E+00
 O  -3.752508861103E+00 -5.148552167000E-03  2.433018867933E+00
 O  -5.625836750614E+00  3.240303344512E+00  2.432316575757E+00
 O  -1.879739953167E+00 -3.250948818327E+00  2.429500321926E+00
 O   1.871086370621E+00 -1.085172962475E+00  8.811621120000E-01
 O  -2.753024627000E-03  2.160014135697E+00  8.818329962280E-01
 O   3.744228850329E+00 -4.330458781760E+00  8.828021514150E-01
 O   5.618699134713E+00 -1.085477284136E+00  8.824274194520E-01
 O   3.744931225363E+00  2.160199565207E+00  8.810600504880E-01
 O   7.491569442463E+00 -4.330422375554E+00  8.812634235650E-01
 O  -1.877360944242E+00 -1.085226774604E+00  8.810251253490E-01
 O  -3.750539388473E+00  2.160226443409E+00  8.818523901970E-01
 O  -3.754205520000E-03 -4.330381005180E+00  8.806767610870E-01
 CE -2.122294938000E-03 -2.609672220000E-03  5.390003533200E-02
 CE -1.875995210123E+00  3.242644629172E+00  5.461478514600E-02
 CE  1.871107897425E+00 -3.247493497558E+00  5.429461517300E-02
 CE  3.745407834389E+00 -2.764925664000E-03  5.449781860500E-02
 CE  1.871408287525E+00  3.242293617307E+00  5.413379392300E-02
 CE  5.618604854981E+00 -3.247833217036E+00  5.470609236700E-02
 CE -3.750151801506E+00 -2.958574361000E-03  5.427506741000E-02
 CE -5.623071047532E+00  3.242039785484E+00  5.419959485500E-02
 CE -1.876552733595E+00 -3.247812923963E+00  5.370939597100E-02
 O  -1.875461681813E+00  1.079962551857E+00 -7.631091422530E-01
 O  -3.748829668478E+00  4.324780462468E+00 -7.628071085060E-01
 O  -1.987508902000E-03 -2.165304789476E+00 -7.633563543390E-01
 O   1.872215994853E+00  1.080072543369E+00 -7.630358770130E-01
 O  -1.270987243000E-03  4.324945465261E+00 -7.628750967970E-01
 O   3.745772539215E+00 -2.165267845085E+00 -7.625154886750E-01
 O  -5.622719986963E+00  1.079338182884E+00 -7.628384182710E-01
 O  -7.496622481555E+00  4.324498561398E+00 -7.640132151770E-01
 O  -3.749385661685E+00 -2.166040285853E+00 -7.631664622340E-01
 O   0.000000000000E+00  0.000000000000E+00 -2.343480358560E+00
 O  -1.873491163015E+00  3.245120261174E+00 -2.343480358560E+00
 O   1.873491163020E+00 -3.245120261169E+00 -2.343480358560E+00
 O   3.747587889841E+00  3.496228720000E-04 -2.343480358560E+00
 O   1.874096726820E+00  3.245469884051E+00 -2.343480358560E+00
 O   5.621079052870E+00 -3.244770638296E+00 -2.343480358560E+00
 O  -3.747587889841E+00 -3.496228820000E-04 -2.343480358560E+00
 O  -5.621079052870E+00  3.244770638296E+00 -2.343480358560E+00
 O  -1.874096726826E+00 -3.245469884046E+00 -2.343480358560E+00
 CE -1.873693017620E+00  1.081590212764E+00 -3.124640478080E+00
 CE -3.747184180630E+00  4.326710473943E+00 -3.124640478080E+00
 CE -2.018546010000E-04 -2.163530048406E+00 -3.124640478080E+00
 CE  1.873894872221E+00  1.081939835642E+00 -3.124640478080E+00
 CE  4.037092039998E-04  4.327060096817E+00 -3.124640478080E+00
 CE  3.747386035242E+00 -2.163180425531E+00 -3.124640478080E+00
 CE -5.621280907503E+00  1.081240589875E+00 -3.124640478080E+00
 CE -7.494772070479E+00  4.326360851070E+00 -3.124640478080E+00
 CE -3.747789744445E+00 -2.163879671287E+00 -3.124640478080E+00
 O   1.873693017620E+00 -1.081590212764E+00 -3.905800597599E+00
 O   2.018546010000E-04  2.163530048406E+00 -3.905800597599E+00
 O   3.747184180630E+00 -4.326710473943E+00 -3.905800597599E+00
 O   5.621280907503E+00 -1.081240589875E+00 -3.905800597599E+00
 O   3.747789744449E+00  2.163879671287E+00 -3.905800597599E+00
 O   7.494772070479E+00 -4.326360851070E+00 -3.905800597599E+00
 O  -1.873894872221E+00 -1.081939835642E+00 -3.905800597599E+00
 O  -3.747386035244E+00  2.163180425531E+00 -3.905800597599E+00
 O  -4.037092049999E-04 -4.327060096817E+00 -3.905800597599E+00
 O   1.323369886729E+01  5.328447722249E+00  6.035887088128E+00
 H   1.319244371814E+01  6.331608637003E+00  5.992266807364E+00
 H   1.266541449613E+01 -1.409033470000E-04  6.023424022293E+00
 O   1.277418121535E+01 -9.666543865090E-01  6.021605054661E+00
 H   1.268010969807E+01 -1.284251006005E+00  6.944092758365E+00
 O   1.083698810327E+01  2.120934193054E+00  6.207777973722E+00
 H   1.123889694535E+01  1.899702279707E+00  7.216706634679E+00
 H   1.081672717435E+01  3.051606213680E+00  5.894407685744E+00
 O   9.247807955327E+00  5.463663286832E+00  6.424870450821E+00
 H   9.272596726731E+00  5.537646737794E+00  7.409060577789E+00
 H   9.179351554002E+00  6.372764336504E+00  6.074051985088E+00
 H   1.319931264353E+01  5.074085025546E+00  6.972129549392E+00
 O   1.681279672806E+01  5.493406908567E+00  6.276721486565E+00
 H   1.771256827121E+01  5.112963064521E+00  6.259266578835E+00
 H   1.657223746376E+01  5.630791028704E+00  7.214547658462E+00
 H   2.162751507766E+01 -1.301385248187E+00  6.521671925901E+00
 O   2.064230699592E+01 -1.182022222421E+00  6.495576749183E+00
 H   2.033419941926E+01 -8.601108582140E-01  7.377277976176E+00
 O   1.870565573740E+01  1.766173765785E+00  6.199925383502E+00
 H   1.967138288318E+01  1.494672866921E+00  6.126846898512E+00
 H   1.860834315407E+01  2.136546703321E+00  7.102613900679E+00
 O  -1.460470163417E+00  9.865722948305E+00  6.182200000000E+00
 H  -1.178618456447E+00  9.818822276692E+00  7.105200000000E+00
 H  -1.407933898267E+00  1.081721590362E+01  5.950800000000E+00
 O   6.273385217674E-01  7.750309886352E+00  6.328400000000E+00
 H   7.460976261383E-01  8.733548005310E+00  6.250800000000E+00
 H   1.039148001974E+00  7.611514583204E+00  7.209800000000E+00
 O  -1.580597248948E+00  1.289805052487E+01  6.587600000000E+00
 H  -2.497595131695E+00  1.248983667081E+01  6.693000000000E+00
 H  -1.586417049494E+00  1.378391817018E+01  7.026800000000E+00
 H  -1.561743392581E+00  1.313628939301E+01  5.624600000000E+00
