  109
Ceria bulk                              
 O  -1.955633418822E+00  1.187479285564E+00  4.085141085018E+00
 O  -3.841274676534E+00  4.326523156168E+00  4.056083594374E+00
 O   2.389958084600E-02 -2.139197399641E+00  4.450446166578E+00
 XX  1.908056554424E+00  1.097603993018E+00  4.089120503632E+00
 O  -1.339247485300E-01  4.234893801991E+00  4.158005989663E+00
 O   3.836466176940E+00 -2.252553717585E+00  4.155314001935E+00
 O  -5.684610205560E+00  1.225368540337E+00  4.204082177751E+00
 O  -7.511811495812E+00  4.265617172709E+00  4.149895628124E+00
 O  -3.836460876487E+00 -2.150530931686E+00  4.114751709843E+00
 CE  1.944014717177E+00 -1.148028921221E+00  3.278345976146E+00
 CE -1.529099801750E-01  2.223805821697E+00  3.199134482827E+00
 CE  3.785213545452E+00 -4.366841513854E+00  3.319453842636E+00
 CE  5.720304496100E+00 -1.127111241907E+00  3.375889808621E+00
 CE  3.967676984655E+00  2.261203453015E+00  3.182528282772E+00
 CE  7.625428235967E+00 -4.423171791097E+00  3.388493585348E+00
 CE -1.974915204177E+00 -1.061955814944E+00  3.325920620297E+00
 CE -3.806375920556E+00  2.201148083400E+00  3.228504072776E+00
 CE  2.903518098700E-02 -4.436196613854E+00  3.291336924519E+00
 O   4.093750583000E-03  2.476199689200E-02  2.557097376633E+00
 O  -1.945672872455E+00  3.306253466950E+00  2.392457207718E+00
 O   1.840373322168E+00 -3.305213251089E+00  2.505817753634E+00
 O   3.795258586490E+00  1.025047182680E-01  2.630744259816E+00
 O   1.910997582748E+00  3.016286874202E+00  2.664396669227E+00
 O   5.684495760784E+00 -3.302067510239E+00  2.526278630385E+00
 O  -3.859339065444E+00  7.065404239000E-03  2.496435605094E+00
 O  -5.694314749274E+00  3.286878812426E+00  2.390858211550E+00
 O  -1.795568490921E+00 -3.256316188637E+00  2.572773889082E+00
 O   1.929583842127E+00 -1.094775001859E+00  8.803465426160E-01
 O  -1.756102546100E-02  2.205832274936E+00  8.738404374580E-01
 O   3.794692839024E+00 -4.352775277473E+00  8.948557555430E-01
 O   5.674341593497E+00 -1.091829201075E+00  9.468357136330E-01
 O   3.835850099529E+00  2.214944683207E+00  8.757511822290E-01
 O   7.654614095805E+00 -4.460396995488E+00  9.774100117480E-01
 O  -1.919365064573E+00 -1.085856126601E+00  9.377147927720E-01
 O  -3.815888428893E+00  2.170081472699E+00  8.516945434710E-01
 O  -1.278939489400E-02 -4.395583615982E+00  8.727223900110E-01
 CE -5.724546223000E-03 -6.911891332000E-03  6.633068891400E-02
 CE -1.916271310597E+00  3.294868660802E+00  2.020847824000E-02
 CE  1.902186864807E+00 -3.280263191248E+00  5.225092469900E-02
 CE  3.815724041332E+00 -8.734323264000E-03  5.150595018600E-02
 CE  1.908665663313E+00  3.283521911704E+00  5.061366145400E-02
 CE  5.712872081440E+00 -3.291364083998E+00  1.060389044890E-01
 CE -3.825202088803E+00 -1.518533093000E-02  6.597582414100E-02
 CE -5.711460416523E+00  3.290913454382E+00  1.275232073000E-03
 CE -1.908401598026E+00 -3.299432263457E+00  1.026957779930E-01
 O  -1.904610435231E+00  1.077997357631E+00 -7.367089006570E-01
 O  -3.809861860922E+00  4.385660875558E+00 -7.535908989790E-01
 O  -1.756781200500E-02 -2.184245389279E+00 -7.158290856160E-01
 O   1.906964890296E+00  1.100831824926E+00 -7.268462881520E-01
 O   1.120657669500E-02  4.394575714296E+00 -7.268561731370E-01
 O   3.824079249530E+00 -2.184793912528E+00 -7.376495315540E-01
 O  -5.729300212713E+00  1.071157280816E+00 -7.429002452370E-01
 O  -7.636692169761E+00  4.381403613103E+00 -7.475662498920E-01
 O  -3.823896152512E+00 -2.215986035736E+00 -6.870159624580E-01
 O   0.000000000000E+00  0.000000000000E+00 -2.343480358560E+00
 O  -1.904777887248E+00  3.287170535390E+00 -2.343480358560E+00
 O   1.904777887254E+00 -3.287170535385E+00 -2.343480358560E+00
 O   3.814473775264E+00  2.820721828000E-03 -2.343480358560E+00
 O   1.909695888008E+00  3.289991257224E+00 -2.343480358560E+00
 O   5.719251662527E+00 -3.284349813560E+00 -2.343480358560E+00
 O  -3.814473775264E+00 -2.820721838000E-03 -2.343480358560E+00
 O  -5.719251662527E+00  3.284349813560E+00 -2.343480358560E+00
 O  -1.909695888013E+00 -3.289991257219E+00 -2.343480358560E+00
 CE -1.906417220839E+00  1.094783271187E+00 -3.124640478080E+00
 CE -3.811195108084E+00  4.381953806583E+00 -3.124640478080E+00
 CE -1.639333585000E-03 -2.192387264202E+00 -3.124640478080E+00
 CE  1.908056554424E+00  1.097603993018E+00 -3.124640478080E+00
 CE  3.278667174000E-03  4.384774528411E+00 -3.124640478080E+00
 CE  3.812834441681E+00 -2.189566542373E+00 -3.124640478080E+00
 CE -5.720890996145E+00  1.091962549342E+00 -3.124640478080E+00
 CE -7.625668883354E+00  4.379133084756E+00 -3.124640478080E+00
 CE -3.816113108852E+00 -2.195207986038E+00 -3.124640478080E+00
 O   1.906417220839E+00 -1.094783271187E+00 -3.905800597599E+00
 O   1.639333585000E-03  2.192387264202E+00 -3.905800597599E+00
 O   3.811195108084E+00 -4.381953806583E+00 -3.905800597599E+00
 O   5.720890996145E+00 -1.091962549342E+00 -3.905800597599E+00
 O   3.816113108856E+00  2.195207986039E+00 -3.905800597599E+00
 O   7.625668883354E+00 -4.379133084756E+00 -3.905800597599E+00
 O  -1.908056554424E+00 -1.097603993018E+00 -3.905800597599E+00
 O  -3.812834441683E+00  2.189566542373E+00 -3.905800597599E+00
 O  -3.278667175000E-03 -4.384774528411E+00 -3.905800597599E+00
 O  -3.154297003290E-01 -4.382329624700E+00  6.050629007988E+00
 H   5.589927046185E+00  7.369550723629E+00  5.342183586582E+00
 H   3.427789913480E-01 -4.916950071023E+00  6.562817286199E+00
 H  -1.051680149026E+00 -4.979550778121E+00  5.781276045599E+00
 O   2.433697465591E+00  2.565966639472E+00  6.956750062753E+00
 H   2.277254941489E+00  2.379119717854E+00  7.899780737488E+00
 H   2.152931170693E+00  3.508395408027E+00  6.804434031422E+00
 O   5.576615954695E+00 -1.241431205332E+00  6.086085262464E+00
 H   5.506711786962E+00 -4.045086870720E-01  6.596350100633E+00
 H   4.709054180433E+00 -1.691886819395E+00  6.063923417962E+00
 O  -5.825787634616E+00  1.572722593750E+00  6.809862275197E+00
 H  -5.769001773282E+00  1.482680824584E+00  5.797807179469E+00
 H   4.738223158569E+00  1.951617441837E+00  7.006899090453E+00
 H   5.044400467540E-01  5.054728189067E+00  6.251218123743E+00
 O   7.194233018443E+00 -4.722274616780E+00  6.351104316072E+00
 H   7.329425817213E+00 -3.966061628146E+00  6.950367198697E+00
 H  -4.180440389360E+00  3.928732498559E+00  8.416125977906E+00
 O  -4.229195497418E+00  3.830451529022E+00  7.450072606532E+00
 H  -4.663536121184E+00  2.954389308664E+00  7.283162132940E+00
 H  -2.199996360364E+00 -1.576909504562E+00  6.986342282313E+00
 O  -2.429583261882E+00 -1.194171305947E+00  6.123465107867E+00
 H  -3.230175521321E+00 -1.654614881198E+00  5.766471675342E+00
 O   1.237255826751E+00  9.458604543820E-01  5.224975116469E+00
 H   4.961097328610E-01  4.775419231670E-01  5.654638658337E+00
 H   1.652310804719E+00  1.541257438459E+00  5.931419477794E+00
 H  -1.236629033962E+00  4.216872664508E+00  5.664369992119E+00
 O  -1.717669967728E+00  4.921191781134E+00  6.152136808400E+00
 H  -2.516142220119E+00  4.516389528258E+00  6.556230495301E+00
