  111
Ceria bulk                              
 O  -1.780769164343E+00  1.194911283102E+00  4.119744953458E+00
 O  -3.861162462635E+00  4.337991481361E+00  4.082136340582E+00
 O  -6.874265891000E-03 -2.277784160647E+00  4.419917454790E+00
 O   1.943298079317E+00  1.221696999267E+00  4.098229377016E+00
 O   4.087204660000E-04  4.320647661401E+00  3.925147775945E+00
 O   3.845841455420E+00 -2.247043586179E+00  4.082409077244E+00
 O  -5.817986401516E+00  1.053527156775E+00  4.122844070837E+00
 O  -3.896103490185E+00 -2.247563163223E+00  4.077805036722E+00
 CE  1.939611213009E+00 -1.069926981797E+00  3.306359078251E+00
 CE  7.213750729999E-04  2.182966693330E+00  3.162321456641E+00
 CE  3.782069661626E+00 -4.354686501756E+00  3.254262511053E+00
 CE  5.659772770761E+00 -1.098850921329E+00  3.251420474627E+00
 CE  3.788417742829E+00  2.071884017797E+00  3.094838520477E+00
 CE  7.430063290296E+00 -4.284957033393E+00  3.180910148771E+00
 CE -1.915289041379E+00 -1.058664796894E+00  3.314322885801E+00
 CE -3.769836453867E+00  2.157391890398E+00  3.322635595257E+00
 CE  1.102580770460E-01 -4.390017088171E+00  3.164995130016E+00
 O   1.132363140400E-02 -6.587818550000E-03  2.452926944216E+00
 O  -1.934050859531E+00  3.260342268687E+00  2.413204525206E+00
 O   1.863601081058E+00 -3.270365053273E+00  2.445732725640E+00
 O   3.800006982519E+00 -1.223040180000E-02  2.390691077735E+00
 O   2.056038974289E+00  3.360594724553E+00  2.466207814270E+00
 O   5.647635849197E+00 -3.256104914684E+00  2.382840940683E+00
 O  -3.816729045244E+00  3.263553527900E-02  2.521650782940E+00
 O  -5.751101115286E+00  3.255933997235E+00  2.446578166502E+00
 O  -1.858802148540E+00 -3.457625101905E+00  2.612648344334E+00
 O   1.896675829789E+00 -1.097457284308E+00  8.313262610130E-01
 O   4.556791096100E-02  2.204622535527E+00  8.987659094560E-01
 O   3.769968610455E+00 -4.340901561782E+00  8.532200970550E-01
 O   5.691283343626E+00 -1.085449595286E+00  8.635940396970E-01
 O   3.777061634514E+00  2.139725849371E+00  8.200011220910E-01
 O   7.549704482791E+00 -4.307008849399E+00  8.520447670990E-01
 O  -1.915999332039E+00 -1.150640725433E+00  9.287952961790E-01
 O  -3.810873124012E+00  2.170036510873E+00  8.825087371260E-01
 O   1.421934319800E-02 -4.350057245969E+00  8.509810079050E-01
 CE  6.240652322000E-03 -1.968816705000E-02  6.580971040100E-02
 CE -1.907359806313E+00  3.261617671072E+00  4.533853299500E-02
 CE  1.895344632203E+00 -3.253567960860E+00  2.800662200700E-02
 CE  3.777621035876E+00 -2.309500346600E-02 -1.611035945000E-03
 CE  1.898974550640E+00  3.270929606913E+00  4.558980976000E-03
 CE  5.666657231929E+00 -3.252275487646E+00  5.428671090000E-03
 CE -3.782722793629E+00 -4.102827595000E-03  5.899089156600E-02
 CE -5.660345490692E+00  3.243283873184E+00  1.389446293100E-02
 CE -1.892632524035E+00 -3.259459416962E+00  4.059215216400E-02
 O  -1.881437203577E+00  1.073866055022E+00 -7.108342177680E-01
 O  -3.783220170712E+00  4.331291218664E+00 -7.601088561430E-01
 O  -1.808979497000E-02 -2.173075420629E+00 -7.477735531660E-01
 O   1.876632686263E+00  1.089714040269E+00 -7.577403570470E-01
 O   1.016041325000E-03  4.336958330338E+00 -7.573015232130E-01
 O   3.789294663014E+00 -2.177585487793E+00 -7.741428643670E-01
 O  -5.665603249622E+00  1.077859108242E+00 -7.640847160790E-01
 O  -7.567459320772E+00  4.345623341701E+00 -7.508516987630E-01
 O  -3.773838614343E+00 -2.167038490945E+00 -7.641180266020E-01
 O   0.000000000000E+00  0.000000000000E+00 -2.343480358560E+00
 O  -1.891491676375E+00  3.258398560081E+00 -2.343480358560E+00
 O   1.891491676380E+00 -3.258398560077E+00 -2.343480358560E+00
 O   3.782661510332E+00 -2.169310420000E-04 -2.343480358560E+00
 O   1.891169833955E+00  3.258181629044E+00 -2.343480358560E+00
 O   5.674153186724E+00 -3.258615491117E+00 -2.343480358560E+00
 O  -3.782661510332E+00  2.169310320000E-04 -2.343480358560E+00
 O  -5.674153186724E+00  3.258615491117E+00 -2.343480358560E+00
 O  -1.891169833960E+00 -3.258181629039E+00 -2.343480358560E+00
 CE -1.891384395572E+00  1.086205163705E+00 -3.124640478080E+00
 CE -3.782876071942E+00  4.344603723791E+00 -3.124640478080E+00
 CE  1.072808090001E-04 -2.172193396372E+00 -3.124640478080E+00
 CE  1.891277114762E+00  1.085988232669E+00 -3.124640478080E+00
 CE -2.145616139999E-04  4.344386792753E+00 -3.124640478080E+00
 CE  3.782768791143E+00 -2.172410327412E+00 -3.124640478080E+00
 CE -5.674045905947E+00  1.086422094727E+00 -3.124640478080E+00
 CE -7.565537582285E+00  4.344820654830E+00 -3.124640478080E+00
 CE -3.782554229530E+00 -2.171976465338E+00 -3.124640478080E+00
 O   1.891384395572E+00 -1.086205163705E+00 -3.905800597599E+00
 O  -1.072808090001E-04  2.172193396372E+00 -3.905800597599E+00
 O   3.782876071942E+00 -4.344603723791E+00 -3.905800597599E+00
 O   5.674045905947E+00 -1.086422094727E+00 -3.905800597599E+00
 O   3.782554229534E+00  2.171976465339E+00 -3.905800597599E+00
 O   7.565537582285E+00 -4.344820654830E+00 -3.905800597599E+00
 O  -1.891277114762E+00 -1.085988232669E+00 -3.905800597599E+00
 O  -3.782768791145E+00  2.172410327411E+00 -3.905800597599E+00
 O   2.145616120000E-04 -4.344386792753E+00 -3.905800597599E+00
 O  -1.319191856206E+00 -5.664991808950E+00  4.922941414320E+00
 H   5.873910466980E+00  7.676765341194E+00  5.352871999027E+00
 H  -9.722875980160E-01 -6.364098198010E+00  5.572565199508E+00
 H  -2.039949799377E+00 -5.195590846214E+00  5.427951606974E+00
 O   1.810863143532E+00  2.278936019530E+00  6.435278031968E+00
 H   1.871157686746E+00  1.856121964981E+00  5.505528946160E+00
 H   8.465724829360E-01  2.222513181119E+00  6.659613450322E+00
 O   5.403939405917E+00 -1.472658163779E+00  6.011501620125E+00
 H   5.111468546371E+00 -7.564721359460E-01  6.594760446367E+00
 H   4.599556514170E+00 -1.903864940743E+00  5.609809877313E+00
 O  -6.457002798954E+00  2.007542888260E+00  6.380912652620E+00
 H  -6.263628659247E+00  1.443921521853E+00  5.535974119793E+00
 H   4.011320948866E+00  1.821174711024E+00  6.759389376761E+00
 H   1.869562228195E+00  3.947904140918E+00  6.125185034366E+00
 O   7.769261712333E+00 -4.884514185770E+00  5.832806918877E+00
 H   7.286499738206E+00 -4.255629896993E+00  6.392148445965E+00
 H   7.495652840802E+00  9.775387784379E+00  6.475609781581E+00
 O   7.545141926591E+00  8.867442930562E+00  6.120449781039E+00
 H   7.982485339878E+00  8.313254678945E+00  6.786027919551E+00
 H  -2.692357684228E+00 -1.236493431637E+00  6.936454692623E+00
 O  -2.868242897207E+00 -9.040495849490E-01  6.043105135350E+00
 H  -3.512751577439E+00 -1.526043859651E+00  5.593982029892E+00
 O  -9.212452431550E-01  2.271430703064E+00  6.409811468995E+00
 H  -1.359486577239E+00  1.783480027894E+00  5.641877714097E+00
 H  -1.560610667509E+00  2.216376247964E+00  7.138784520609E+00
 H  -1.424740655105E+00  4.161613313662E+00  6.020345644850E+00
 O  -1.996051232301E+00  4.941627956070E+00  5.844169816695E+00
 H  -2.893629574294E+00  4.568873907039E+00  5.696414927519E+00
 H   2.203435754034E+00  1.060710572749E+01  6.078257556210E+00
 H   1.110689917044E+00  1.167402373370E+01  6.482277654216E+00
 O   1.959385664192E+00  1.156224945434E+01  6.009476385772E+00
  111
Ceria bulk                               E -1.7584997056543E+04 DE-7.1E-07(  5)
 O  -1.780769164343E+00  1.194911283102E+00  4.119744953458E+00
 O  -3.861162462635E+00  4.337991481361E+00  4.082136340582E+00
 O  -6.874265891000E-03 -2.277784160647E+00  4.419917454790E+00
 O   1.943298079317E+00  1.221696999267E+00  4.098229377016E+00
 O   4.087204660000E-04  4.320647661401E+00  3.925147775945E+00
 O   3.845841455420E+00 -2.247043586179E+00  4.082409077244E+00
 O  -5.817986401516E+00  1.053527156775E+00  4.122844070837E+00
 O  -3.896103490185E+00 -2.247563163223E+00  4.077805036722E+00
 CE  1.939611213009E+00 -1.069926981797E+00  3.306359078251E+00
 CE  7.213750729999E-04  2.182966693330E+00  3.162321456641E+00
 CE  3.782069661626E+00 -4.354686501756E+00  3.254262511053E+00
 CE  5.659772770761E+00 -1.098850921329E+00  3.251420474627E+00
 CE  3.788417742829E+00  2.071884017797E+00  3.094838520477E+00
 CE  7.430063290296E+00 -4.284957033393E+00  3.180910148771E+00
 CE -1.915289041379E+00 -1.058664796894E+00  3.314322885801E+00
 CE -3.769836453867E+00  2.157391890398E+00  3.322635595257E+00
 CE  1.102580770460E-01 -4.390017088171E+00  3.164995130016E+00
 O   1.132363140400E-02 -6.587818550000E-03  2.452926944216E+00
 O  -1.934050859531E+00  3.260342268687E+00  2.413204525206E+00
 O   1.863601081058E+00 -3.270365053273E+00  2.445732725640E+00
 O   3.800006982519E+00 -1.223040180000E-02  2.390691077735E+00
 O   2.056038974289E+00  3.360594724553E+00  2.466207814270E+00
 O   5.647635849197E+00 -3.256104914684E+00  2.382840940683E+00
 O  -3.816729045244E+00  3.263553527900E-02  2.521650782940E+00
 O  -5.751101115286E+00  3.255933997235E+00  2.446578166502E+00
 O  -1.858802148540E+00 -3.457625101905E+00  2.612648344334E+00
 O   1.896675829789E+00 -1.097457284308E+00  8.313262610130E-01
 O   4.556791096100E-02  2.204622535527E+00  8.987659094560E-01
 O   3.769968610455E+00 -4.340901561782E+00  8.532200970550E-01
 O   5.691283343626E+00 -1.085449595286E+00  8.635940396970E-01
 O   3.777061634514E+00  2.139725849371E+00  8.200011220910E-01
 O   7.549704482791E+00 -4.307008849399E+00  8.520447670990E-01
 O  -1.915999332039E+00 -1.150640725433E+00  9.287952961790E-01
 O  -3.810873124012E+00  2.170036510873E+00  8.825087371260E-01
 O   1.421934319800E-02 -4.350057245969E+00  8.509810079050E-01
 CE  6.240652322000E-03 -1.968816705000E-02  6.580971040100E-02
 CE -1.907359806313E+00  3.261617671072E+00  4.533853299500E-02
 CE  1.895344632203E+00 -3.253567960860E+00  2.800662200700E-02
 CE  3.777621035876E+00 -2.309500346600E-02 -1.611035945000E-03
 CE  1.898974550640E+00  3.270929606913E+00  4.558980976000E-03
 CE  5.666657231929E+00 -3.252275487646E+00  5.428671090000E-03
 CE -3.782722793629E+00 -4.102827595000E-03  5.899089156600E-02
 CE -5.660345490692E+00  3.243283873184E+00  1.389446293100E-02
 CE -1.892632524035E+00 -3.259459416962E+00  4.059215216400E-02
 O  -1.881437203577E+00  1.073866055022E+00 -7.108342177680E-01
 O  -3.783220170712E+00  4.331291218664E+00 -7.601088561430E-01
 O  -1.808979497000E-02 -2.173075420629E+00 -7.477735531660E-01
 O   1.876632686263E+00  1.089714040269E+00 -7.577403570470E-01
 O   1.016041325000E-03  4.336958330338E+00 -7.573015232130E-01
 O   3.789294663014E+00 -2.177585487793E+00 -7.741428643670E-01
 O  -5.665603249622E+00  1.077859108242E+00 -7.640847160790E-01
 O  -7.567459320772E+00  4.345623341701E+00 -7.508516987630E-01
 O  -3.773838614343E+00 -2.167038490945E+00 -7.641180266020E-01
 O   0.000000000000E+00  0.000000000000E+00 -2.343480358560E+00
 O  -1.891491676375E+00  3.258398560081E+00 -2.343480358560E+00
 O   1.891491676380E+00 -3.258398560077E+00 -2.343480358560E+00
 O   3.782661510332E+00 -2.169310420000E-04 -2.343480358560E+00
 O   1.891169833955E+00  3.258181629044E+00 -2.343480358560E+00
 O   5.674153186724E+00 -3.258615491117E+00 -2.343480358560E+00
 O  -3.782661510332E+00  2.169310320000E-04 -2.343480358560E+00
 O  -5.674153186724E+00  3.258615491117E+00 -2.343480358560E+00
 O  -1.891169833960E+00 -3.258181629039E+00 -2.343480358560E+00
 CE -1.891384395572E+00  1.086205163705E+00 -3.124640478080E+00
 CE -3.782876071942E+00  4.344603723791E+00 -3.124640478080E+00
 CE  1.072808090001E-04 -2.172193396372E+00 -3.124640478080E+00
 CE  1.891277114762E+00  1.085988232669E+00 -3.124640478080E+00
 CE -2.145616139999E-04  4.344386792753E+00 -3.124640478080E+00
 CE  3.782768791143E+00 -2.172410327412E+00 -3.124640478080E+00
 CE -5.674045905947E+00  1.086422094727E+00 -3.124640478080E+00
 CE -7.565537582285E+00  4.344820654830E+00 -3.124640478080E+00
 CE -3.782554229530E+00 -2.171976465338E+00 -3.124640478080E+00
 O   1.891384395572E+00 -1.086205163705E+00 -3.905800597599E+00
 O  -1.072808090001E-04  2.172193396372E+00 -3.905800597599E+00
 O   3.782876071942E+00 -4.344603723791E+00 -3.905800597599E+00
 O   5.674045905947E+00 -1.086422094727E+00 -3.905800597599E+00
 O   3.782554229534E+00  2.171976465339E+00 -3.905800597599E+00
 O   7.565537582285E+00 -4.344820654830E+00 -3.905800597599E+00
 O  -1.891277114762E+00 -1.085988232669E+00 -3.905800597599E+00
 O  -3.782768791145E+00  2.172410327411E+00 -3.905800597599E+00
 O   2.145616120000E-04 -4.344386792753E+00 -3.905800597599E+00
 O  -1.319191856206E+00 -5.664991808950E+00  4.922941414320E+00
 H   5.873910466980E+00  7.676765341194E+00  5.352871999027E+00
 H  -9.722875980160E-01 -6.364098198010E+00  5.572565199508E+00
 H  -2.039949799377E+00 -5.195590846214E+00  5.427951606974E+00
 O   1.810863143532E+00  2.278936019530E+00  6.435278031968E+00
 H   1.871157686746E+00  1.856121964981E+00  5.505528946160E+00
 H   8.465724829360E-01  2.222513181119E+00  6.659613450322E+00
 O   5.403939405917E+00 -1.472658163779E+00  6.011501620125E+00
 H   5.111468546371E+00 -7.564721359460E-01  6.594760446367E+00
 H   4.599556514170E+00 -1.903864940743E+00  5.609809877313E+00
 O  -6.457002798954E+00  2.007542888260E+00  6.380912652620E+00
 H  -6.263628659247E+00  1.443921521853E+00  5.535974119793E+00
 H   4.011320948866E+00  1.821174711024E+00  6.759389376761E+00
 H   1.869562228195E+00  3.947904140918E+00  6.125185034366E+00
 O   7.769261712333E+00 -4.884514185770E+00  5.832806918877E+00
 H   7.286499738206E+00 -4.255629896993E+00  6.392148445965E+00
 H   7.495652840802E+00  9.775387784379E+00  6.475609781581E+00
 O   7.545141926591E+00  8.867442930562E+00  6.120449781039E+00
 H   7.982485339878E+00  8.313254678945E+00  6.786027919551E+00
 H  -2.692357684228E+00 -1.236493431637E+00  6.936454692623E+00
 O  -2.868242897207E+00 -9.040495849490E-01  6.043105135350E+00
 H  -3.512751577439E+00 -1.526043859651E+00  5.593982029892E+00
 O  -9.212452431550E-01  2.271430703064E+00  6.409811468995E+00
 H  -1.359486577239E+00  1.783480027894E+00  5.641877714097E+00
 H  -1.560610667509E+00  2.216376247964E+00  7.138784520609E+00
 H  -1.424740655105E+00  4.161613313662E+00  6.020345644850E+00
 O  -1.996051232301E+00  4.941627956070E+00  5.844169816695E+00
 H  -2.893629574294E+00  4.568873907039E+00  5.696414927519E+00
 H   2.203435754034E+00  1.060710572749E+01  6.078257556210E+00
 H   1.110689917044E+00  1.167402373370E+01  6.482277654216E+00
 O   1.959385664192E+00  1.156224945434E+01  6.009476385772E+00
