  111
CERIA BULK                              
 O  -1.857096629225E+00  1.041959117601E+00  4.078423742867E+00
 O   1.322211513276E+01  5.421122527625E+00  8.795942650070E-01
 O   1.708210958007E+01  5.442275950190E+00  9.032150298980E-01
 O   1.754746720381E+00  1.020709645780E+00  4.100128177102E+00
 O   1.121202032741E+01  4.305763634324E+00  4.126207693995E+00
 O  -5.662441802285E+00  1.026720144664E+00  4.422765168326E+00
 O   1.320808430675E+01  3.300872107358E+00  2.521418303647E+00
 O   1.128503787313E+01  6.466440450054E+00  2.440123882324E+00
 CE  1.752870324964E+00 -1.018283019779E+00  3.182704774932E+00
 CE -1.735219677500E-02  2.161419906000E+00  3.258768672863E+00
 CE  3.803113105197E+00 -4.444901411580E+00  3.092733573703E+00
 CE  5.769811781607E+00 -1.126523399943E+00  3.193836663931E+00
 CE  3.760774622849E+00  2.184513264324E+00  3.322148915846E+00
 CE  7.590428255585E+00 -4.352275228666E+00  3.313173038473E+00
 CE -1.895196525268E+00 -1.100205210023E+00  3.248320901361E+00
 CE -3.733235192027E+00  2.181193174281E+00  3.280484089889E+00
 CE  7.736551501000E-03 -4.334447378005E+00  3.159589213101E+00
 O  -3.492694613400E-02  6.881199977000E-03  2.391109201961E+00
 O  -1.878071430908E+00  3.236843812971E+00  2.389070064968E+00
 O   1.897681312095E+01  4.426205544526E+00  4.078861150889E+00
 O   3.764029162955E+00 -1.719357606440E-01  2.604795618237E+00
 O   1.525706259591E+01  4.451616774255E+00  4.115163514623E+00
 O   1.706307248703E+01  3.217007698978E+00  2.455074987246E+00
 O  -3.782255776670E+00  5.482096382000E-03  2.458221532983E+00
 O   1.701411071675E+01  7.556775508469E+00  3.922273252034E+00
 O   1.323411139563E+01  7.506020416161E+00  4.075080062907E+00
 O   1.863481933549E+00 -1.058641609469E+00  8.519829278680E-01
 O   1.868839369900E-02  2.171170886367E+00  8.652329392000E-01
 O   3.775730612700E+00 -4.377225609375E+00  8.215797162010E-01
 O   5.688819227089E+00 -1.089415525451E+00  8.472916996290E-01
 O   3.761587006485E+00  2.116870946148E+00  9.180640074760E-01
 O   1.909195919711E+01  6.603999305214E+00  2.488664329014E+00
 O  -1.903536689149E+00 -1.087687223268E+00  8.558498419270E-01
 O  -3.775014472318E+00  2.162272107559E+00  8.444838152740E-01
 O   1.510296431086E+01  6.485764924141E+00  2.396732191606E+00
 CE -8.097033912000E-03  5.151368064000E-03  5.607169963000E-03
 CE -1.893639454780E+00  3.233630356444E+00 -5.736911771000E-03
 CE  1.903064348215E+00 -3.246209987704E+00  3.582569531000E-03
 CE  3.781222951263E+00 -2.577889723000E-03  4.991740549300E-02
 CE  1.893121144101E+00  3.250728514247E+00  5.855852150200E-02
 CE  5.692874286519E+00 -3.269775445982E+00  1.962877702800E-02
 CE -3.783362274621E+00  2.368794190000E-04  3.369266428000E-02
 CE -5.670703974745E+00  3.235649898399E+00  6.060326439600E-02
 CE -1.903127465019E+00 -3.255273881531E+00  3.835416684000E-02
 O  -1.887926051951E+00  1.079108311836E+00 -7.713511141950E-01
 O  -3.798025226599E+00  4.342132995922E+00 -7.608492295030E-01
 O   1.728388367000E-03 -2.182231340555E+00 -7.596049105250E-01
 O   1.898891096903E+00  1.086179542361E+00 -7.608486532350E-01
 O   6.590296204000E-03  4.333572403608E+00 -7.622859887060E-01
 O   3.780669906973E+00 -2.172725169849E+00 -7.475361787770E-01
 O  -5.689689579868E+00  1.088136983433E+00 -7.458314275820E-01
 O  -7.556628952452E+00  4.334939724263E+00 -7.161422648790E-01
 O  -3.781732884984E+00 -2.181354148538E+00 -7.601762031560E-01
 O   0.000000000000E+00  0.000000000000E+00 -2.343480358560E+00
 O  -1.893767494947E+00  3.256834191996E+00 -2.343480358560E+00
 O   1.893767494952E+00 -3.256834191991E+00 -2.343480358560E+00
 O   3.784239785075E+00 -1.811246673000E-03 -2.343480358560E+00
 O   1.890472290122E+00  3.255022945329E+00 -2.343480358560E+00
 O   5.678007280034E+00 -3.258645438666E+00 -2.343480358560E+00
 O  -3.784239785075E+00  1.811246663000E-03 -2.343480358560E+00
 O  -5.678007280034E+00  3.258645438666E+00 -2.343480358560E+00
 O  -1.890472290127E+00 -3.255022945324E+00 -2.343480358560E+00
 CE -1.892669093340E+00  1.086215146220E+00 -3.124640478080E+00
 CE -3.786436588282E+00  4.343049338224E+00 -3.124640478080E+00
 CE  1.098401608000E-03 -2.170619045773E+00 -3.124640478080E+00
 CE  1.891570691733E+00  1.084403899552E+00 -3.124640478080E+00
 CE -2.196803216000E-03  4.341238091551E+00 -3.124640478080E+00
 CE  3.785338186683E+00 -2.172430292445E+00 -3.124640478080E+00
 CE -5.676908878456E+00  1.088026392875E+00 -3.124640478080E+00
 CE -7.570676373363E+00  4.344860584897E+00 -3.124640478080E+00
 CE -3.783141383469E+00 -2.168807799108E+00 -3.124640478080E+00
 O   1.892669093340E+00 -1.086215146220E+00 -3.905800597599E+00
 O  -1.098401608000E-03  2.170619045773E+00 -3.905800597599E+00
 O   3.786436588282E+00 -4.343049338224E+00 -3.905800597599E+00
 O   5.676908878456E+00 -1.088026392875E+00 -3.905800597599E+00
 O   3.783141383473E+00  2.168807799109E+00 -3.905800597599E+00
 O   7.570676373363E+00 -4.344860584897E+00 -3.905800597599E+00
 O  -1.891570691733E+00 -1.084403899552E+00 -3.905800597599E+00
 O  -3.785338186686E+00  2.172430292444E+00 -3.905800597599E+00
 O   2.196803215000E-03 -4.341238091552E+00 -3.905800597599E+00
 O  -1.265756467052E+01  7.321747569414E+00  4.953275400437E+00
 H  -5.464640740646E+00  1.228999001661E+00  5.353759531642E+00
 H  -1.231307908515E+01  6.624713935633E+00  5.604898355143E+00
 H  -1.339128121963E+01  7.782644774139E+00  5.447998668847E+00
 O  -3.873389485325E+00  5.498882542149E+00  6.417315463875E+00
 H  -3.808658269787E+00  5.069567499052E+00  5.492166784827E+00
 H  -4.840956790633E+00  5.454461559675E+00  6.638430418379E+00
 O  -2.984720887700E-01  1.812456641327E+00  6.017262178380E+00
 H  -5.774905021530E-01  2.546165803991E+00  6.585521758750E+00
 H  -1.109110339235E+00  1.390645322139E+00  5.621831485785E+00
 O  -1.212813411354E+01  5.211979662468E+00  6.409829197588E+00
 H  -1.193972115905E+01  4.674812919119E+00  5.547551658426E+00
 H  -1.663182715666E+00  5.028288299314E+00  6.771941925408E+00
 H  -3.808139151322E+00  7.165267469764E+00  6.110301242709E+00
 O   2.104385963963E+00 -1.661114491432E+00  5.826486482345E+00
 H   1.646257964902E+00 -1.035481557060E+00  6.409650932344E+00
 H  -3.850327170146E+00  3.243450675277E+00  6.493834913890E+00
 O  -3.805001018014E+00  2.340343878084E+00  6.125777080318E+00
 H  -3.367270728779E+00  1.775001788125E+00  6.781928229659E+00
 H  -8.415694855403E+00  2.019622659662E+00  6.970765406909E+00
 O  -8.548568114418E+00  2.340424184826E+00  6.065860157949E+00
 H  -9.195822410154E+00  1.730051490807E+00  5.601668192371E+00
 O  -6.589177516361E+00  5.542926263860E+00  6.413854227228E+00
 H  -7.036085598696E+00  5.061823416049E+00  5.649211143172E+00
 H  -7.218681015739E+00  5.483138904131E+00  7.150694594799E+00
 H  -7.075039720817E+00  7.481554923850E+00  6.032120199213E+00
 O  -1.995043863589E+00 -1.532976990819E+00  5.856581353417E+00
 H  -8.548677870508E+00  7.817682755829E+00  5.675514180611E+00
 H  -9.132417893757E+00  4.065758840399E+00  6.069902170558E+00
 H  -1.022338166323E+01  5.130498232083E+00  6.479134399818E+00
 O  -9.381268761121E+00  5.019942128133E+00  5.995533881120E+00
  111
CERIA BULK                              
 O  -1.857096629225E+00  1.041959117601E+00  4.078423742867E+00
 O   1.322211513276E+01  5.421122527625E+00  8.795942650072E-01
 O   1.708210958007E+01  5.442275950190E+00  9.032150298979E-01
 O   1.754746720381E+00  1.020709645780E+00  4.100128177102E+00
 O   1.121202032741E+01  4.305763634324E+00  4.126207693995E+00
 O  -5.662441802285E+00  1.026720144664E+00  4.422765168326E+00
 O   1.320808430675E+01  3.300872107358E+00  2.521418303647E+00
 O   1.128503787313E+01  6.466440450054E+00  2.440123882324E+00
 CE  1.752870324964E+00 -1.018283019779E+00  3.182704774932E+00
 CE -1.735219677513E-02  2.161419906000E+00  3.258768672863E+00
 CE  3.803113105197E+00 -4.444901411580E+00  3.092733573703E+00
 CE  5.769811781607E+00 -1.126523399943E+00  3.193836663931E+00
 CE  3.760774622849E+00  2.184513264324E+00  3.322148915846E+00
 CE  7.590428255585E+00 -4.352275228666E+00  3.313173038473E+00
 CE -1.895196525268E+00 -1.100205210023E+00  3.248320901361E+00
 CE -3.733235192027E+00  2.181193174281E+00  3.280484089889E+00
 CE  7.736551501097E-03 -4.334447378005E+00  3.159589213101E+00
 O  -3.492694613410E-02  6.881199976772E-03  2.391109201961E+00
 O  -1.878071430908E+00  3.236843812971E+00  2.389070064968E+00
 O   1.897681312095E+01  4.426205544526E+00  4.078861150889E+00
 O   3.764029162955E+00 -1.719357606442E-01  2.604795618237E+00
 O   1.525706259591E+01  4.451616774255E+00  4.115163514623E+00
 O   1.706307248703E+01  3.217007698978E+00  2.455074987246E+00
 O  -3.782255776670E+00  5.482096382252E-03  2.458221532983E+00
 O   1.701411071675E+01  7.556775508469E+00  3.922273252034E+00
 O   1.323411139563E+01  7.506020416161E+00  4.075080062907E+00
 O   1.863481933549E+00 -1.058641609469E+00  8.519829278676E-01
 O   1.868839369920E-02  2.171170886367E+00  8.652329392003E-01
 O   3.775730612700E+00 -4.377225609375E+00  8.215797162011E-01
 O   5.688819227089E+00 -1.089415525451E+00  8.472916996293E-01
 O   3.761587006485E+00  2.116870946148E+00  9.180640074764E-01
 O   1.909195919711E+01  6.603999305214E+00  2.488664329014E+00
 O  -1.903536689149E+00 -1.087687223268E+00  8.558498419270E-01
 O  -3.775014472318E+00  2.162272107559E+00  8.444838152743E-01
 O   1.510296431087E+01  6.485764924142E+00  2.396732191606E+00
 CE -8.097033911558E-03  5.151368063758E-03  5.607169962948E-03
 CE -1.893639454780E+00  3.233630356444E+00 -5.736911771054E-03
 CE  1.903064348215E+00 -3.246209987704E+00  3.582569531012E-03
 CE  3.781222951263E+00 -2.577889722847E-03  4.991740549301E-02
 CE  1.893121144101E+00  3.250728514247E+00  5.855852150178E-02
 CE  5.692874286519E+00 -3.269775445982E+00  1.962877702815E-02
 CE -3.783362274621E+00  2.368794187501E-04  3.369266427960E-02
 CE -5.670703974745E+00  3.235649898399E+00  6.060326439609E-02
 CE -1.903127465019E+00 -3.255273881531E+00  3.835416684046E-02
 O  -1.887926051951E+00  1.079108311836E+00 -7.713511141947E-01
 O  -3.798025226599E+00  4.342132995922E+00 -7.608492295029E-01
 O   1.728388366985E-03 -2.182231340555E+00 -7.596049105253E-01
 O   1.898891096903E+00  1.086179542361E+00 -7.608486532345E-01
 O   6.590296204405E-03  4.333572403608E+00 -7.622859887061E-01
 O   3.780669906973E+00 -2.172725169849E+00 -7.475361787770E-01
 O  -5.689689579868E+00  1.088136983433E+00 -7.458314275821E-01
 O  -7.556628952452E+00  4.334939724263E+00 -7.161422648786E-01
 O  -3.781732884984E+00 -2.181354148538E+00 -7.601762031565E-01
 O   0.000000000000E+00  0.000000000000E+00 -2.343480358560E+00
 O  -1.893767494947E+00  3.256834191996E+00 -2.343480358560E+00
 O   1.893767494952E+00 -3.256834191991E+00 -2.343480358560E+00
 O   3.784239785075E+00 -1.811246672984E-03 -2.343480358560E+00
 O   1.890472290122E+00  3.255022945329E+00 -2.343480358560E+00
 O   5.678007280034E+00 -3.258645438666E+00 -2.343480358560E+00
 O  -3.784239785075E+00  1.811246662988E-03 -2.343480358560E+00
 O  -5.678007280034E+00  3.258645438666E+00 -2.343480358560E+00
 O  -1.890472290127E+00 -3.255022945324E+00 -2.343480358560E+00
 CE -1.892669093340E+00  1.086215146220E+00 -3.124640478080E+00
 CE -3.786436588282E+00  4.343049338224E+00 -3.124640478080E+00
 CE  1.098401607788E-03 -2.170619045773E+00 -3.124640478080E+00
 CE  1.891570691733E+00  1.084403899552E+00 -3.124640478080E+00
 CE -2.196803215577E-03  4.341238091551E+00 -3.124640478080E+00
 CE  3.785338186683E+00 -2.172430292445E+00 -3.124640478080E+00
 CE -5.676908878456E+00  1.088026392875E+00 -3.124640478080E+00
 CE -7.570676373363E+00  4.344860584897E+00 -3.124640478080E+00
 CE -3.783141383469E+00 -2.168807799108E+00 -3.124640478080E+00
 O   1.892669093340E+00 -1.086215146220E+00 -3.905800597599E+00
 O  -1.098401607788E-03  2.170619045773E+00 -3.905800597599E+00
 O   3.786436588282E+00 -4.343049338224E+00 -3.905800597599E+00
 O   5.676908878456E+00 -1.088026392875E+00 -3.905800597599E+00
 O   3.783141383473E+00  2.168807799109E+00 -3.905800597599E+00
 O   7.570676373363E+00 -4.344860584897E+00 -3.905800597599E+00
 O  -1.891570691733E+00 -1.084403899552E+00 -3.905800597599E+00
 O  -3.785338186686E+00  2.172430292444E+00 -3.905800597599E+00
 O   2.196803214577E-03 -4.341238091552E+00 -3.905800597599E+00
 O  -1.265756467052E+01  7.321747569414E+00  4.953275400437E+00
 H  -5.464640740646E+00  1.228999001661E+00  5.353759531643E+00
 H  -1.231307908515E+01  6.624713935632E+00  5.604898355142E+00
 H  -1.339128121963E+01  7.782644774138E+00  5.447998668847E+00
 O  -3.873389485325E+00  5.498882542149E+00  6.417315463875E+00
 H  -3.808658269787E+00  5.069567499052E+00  5.492166784827E+00
 H  -4.840956790633E+00  5.454461559675E+00  6.638430418379E+00
 O  -2.984720887704E-01  1.812456641327E+00  6.017262178380E+00
 H  -5.774905021531E-01  2.546165803991E+00  6.585521758750E+00
 H  -1.109110339235E+00  1.390645322139E+00  5.621831485784E+00
 O  -1.212813411354E+01  5.211979662468E+00  6.409829197588E+00
 H  -1.193972115905E+01  4.674812919119E+00  5.547551658426E+00
 H  -1.663182715666E+00  5.028288299314E+00  6.771941925408E+00
 H  -3.808139151322E+00  7.165267469764E+00  6.110301242709E+00
 O   2.104385963963E+00 -1.661114491431E+00  5.826486482345E+00
 H   1.646257964902E+00 -1.035481557060E+00  6.409650932344E+00
 H  -3.850327170146E+00  3.243450675277E+00  6.493834913890E+00
 O  -3.805001018014E+00  2.340343878084E+00  6.125777080318E+00
 H  -3.367270728779E+00  1.775001788125E+00  6.781928229659E+00
 H  -8.415694855403E+00  2.019622659662E+00  6.970765406908E+00
 O  -8.548568114418E+00  2.340424184826E+00  6.065860157949E+00
 H  -9.195822410154E+00  1.730051490807E+00  5.601668192371E+00
 O  -6.589177516361E+00  5.542926263860E+00  6.413854227228E+00
 H  -7.036085598696E+00  5.061823416049E+00  5.649211143172E+00
 H  -7.218681015739E+00  5.483138904131E+00  7.150694594799E+00
 H  -7.075039720817E+00  7.481554923850E+00  6.032120199213E+00
 O  -1.995043863589E+00 -1.532976990819E+00  5.856581353416E+00
 H  -8.548677870508E+00  7.817682755829E+00  5.675514180611E+00
 H  -9.132417893757E+00  4.065758840399E+00  6.069902170558E+00
 H  -1.022338166323E+01  5.130498232083E+00  6.479134399818E+00
 O  -9.381268761121E+00  5.019942128133E+00  5.995533881120E+00
  111
CERIA BULK                               E -1.7584997825241E+04 DE-7.1E-08(  8)
 O  -1.857012993517E+00  1.041861326791E+00  4.078510319800E+00
 O   1.322212506920E+01  5.421130497699E+00  8.796193829759E-01
 O   1.708211343414E+01  5.442287494426E+00  9.031847675058E-01
 O   1.754780617590E+00  1.020726128607E+00  4.100058413149E+00
 O   1.121198840926E+01  4.305775960963E+00  4.126207918971E+00
 O  -5.662476985572E+00  1.026739086992E+00  4.422749138912E+00
 O   1.320809520968E+01  3.300883344513E+00  2.521471582299E+00
 O   1.128500234831E+01  6.466432994474E+00  2.440141108210E+00
 CE  1.752855257493E+00 -1.018297382436E+00  3.182657197112E+00
 CE -1.736462639277E-02  2.161414672587E+00  3.258758092645E+00
 CE  3.803084454985E+00 -4.444896968747E+00  3.092740090312E+00
 CE  5.769842508599E+00 -1.126530946894E+00  3.193802108251E+00
 CE  3.760754361621E+00  2.184514943341E+00  3.322121185072E+00
 CE  7.590373689174E+00 -4.352281799724E+00  3.313240805741E+00
 CE -1.895230428217E+00 -1.100243205617E+00  3.248375438760E+00
 CE -3.733263444829E+00  2.181169133793E+00  3.280542764871E+00
 CE  7.759589182756E-03 -4.334443625597E+00  3.159593256798E+00
 O  -3.491136197078E-02  6.841242215227E-03  2.391059702971E+00
 O  -1.878072283538E+00  3.236870529214E+00  2.389102766179E+00
 O   1.897676728135E+01  4.426337056110E+00  4.078815660190E+00
 O   3.764081576030E+00 -1.719024630320E-01  2.604779346433E+00
 O   1.525707247784E+01  4.451557982525E+00  4.115156195337E+00
 O   1.706295870439E+01  3.217062591509E+00  2.455090172599E+00
 O  -3.782252164853E+00  5.390113840545E-03  2.458262814878E+00
 O   1.701407628596E+01  7.556770035020E+00  3.922290070930E+00
 O   1.323405192398E+01  7.505967080379E+00  4.075123541109E+00
 O   1.863546830260E+00 -1.058625379269E+00  8.519457523383E-01
 O   1.873339393667E-02  2.171150578936E+00  8.652380767038E-01
 O   3.775686151610E+00 -4.377253601476E+00  8.215363432630E-01
 O   5.688852587943E+00 -1.089449270922E+00  8.472769264059E-01
 O   3.761569209864E+00  2.116852094160E+00  9.180789979855E-01
 O   1.909193713029E+01  6.603998038499E+00  2.488578786418E+00
 O  -1.903514750435E+00 -1.087682318426E+00  8.558365197587E-01
 O  -3.775025110072E+00  2.162259841448E+00  8.444848949876E-01
 O   1.510288754182E+01  6.485762782244E+00  2.396698910247E+00
 CE -8.076111133433E-03  5.127639654983E-03  5.610071560239E-03
 CE -1.893621855301E+00  3.233589990009E+00 -5.706257031255E-03
 CE  1.903065492998E+00 -3.246199757828E+00  3.582173914087E-03
 CE  3.781261214294E+00 -2.591792243567E-03  4.990430547353E-02
 CE  1.893106441955E+00  3.250742990626E+00  5.855700335228E-02
 CE  5.692840471388E+00 -3.269810221616E+00  1.957403613747E-02
 CE -3.783335089460E+00  2.694930113074E-04  3.367155316329E-02
 CE -5.670705911990E+00  3.235647052091E+00  6.059788260950E-02
 CE -1.903088438687E+00 -3.255267836030E+00  3.827925753512E-02
 O  -1.887937386739E+00  1.079093152974E+00 -7.713528612132E-01
 O  -3.798007820035E+00  4.342093667765E+00 -7.608304200889E-01
 O   1.763466255656E-03 -2.182228978635E+00 -7.596116889179E-01
 O   1.898922465518E+00  1.086195082110E+00 -7.608921956282E-01
 O   6.602858864395E-03  4.333576361153E+00 -7.622928076379E-01
 O   3.780718011516E+00 -2.172736875499E+00 -7.475562977299E-01
 O  -5.689666496963E+00  1.088141364737E+00 -7.458453259720E-01
 O  -7.556641903110E+00  4.334940986700E+00 -7.161371214498E-01
 O  -3.781712122385E+00 -2.181349170686E+00 -7.601918370242E-01
 O   0.000000000000E+00  0.000000000000E+00 -2.343480358560E+00
 O  -1.893765580789E+00  3.256833609860E+00 -2.343480358560E+00
 O   1.893765580794E+00 -3.256833609855E+00 -2.343480358560E+00
 O   3.784237009847E+00 -1.810635941583E-03 -2.343480358560E+00
 O   1.890471429052E+00  3.255022973925E+00 -2.343480358560E+00
 O   5.678002590648E+00 -3.258644245799E+00 -2.343480358560E+00
 O  -3.784237009847E+00  1.810635931587E-03 -2.343480358560E+00
 O  -5.678002590648E+00  3.258644245799E+00 -2.343480358560E+00
 O  -1.890471429057E+00 -3.255022973920E+00 -2.343480358560E+00
 CE -1.892667530212E+00  1.086214748598E+00 -3.124640478080E+00
 CE -3.786433110995E+00  4.343048358465E+00 -3.124640478080E+00
 CE  1.098050578413E-03 -2.170618861259E+00 -3.124640478080E+00
 CE  1.891569479633E+00  1.084404112661E+00 -3.124640478080E+00
 CE -2.196101156828E-03  4.341237722524E+00 -3.124640478080E+00
 CE  3.785335060425E+00 -2.172429497200E+00 -3.124640478080E+00
 CE -5.676904540099E+00  1.088025384521E+00 -3.124640478080E+00
 CE -7.570670120849E+00  4.344858994408E+00 -3.124640478080E+00
 CE -3.783138959271E+00 -2.168808225326E+00 -3.124640478080E+00
 O   1.892667530212E+00 -1.086214748598E+00 -3.905800597599E+00
 O  -1.098050578413E-03  2.170618861259E+00 -3.905800597599E+00
 O   3.786433110995E+00 -4.343048358465E+00 -3.905800597599E+00
 O   5.676904540099E+00 -1.088025384521E+00 -3.905800597599E+00
 O   3.783138959275E+00  2.168808225327E+00 -3.905800597599E+00
 O   7.570670120849E+00 -4.344858994408E+00 -3.905800597599E+00
 O  -1.891569479633E+00 -1.084404112661E+00 -3.905800597599E+00
 O  -3.785335060428E+00  2.172429497199E+00 -3.905800597599E+00
 O   2.196101155827E-03 -4.341237722525E+00 -3.905800597599E+00
 O  -1.265757314110E+01  7.321736030710E+00  4.953284796426E+00
 H  -5.464677988131E+00  1.228951657330E+00  5.353765992097E+00
 H  -1.231310008233E+01  6.624727812004E+00  5.604927171573E+00
 H  -1.339126453185E+01  7.782671037044E+00  5.448000981671E+00
 O  -3.873410148841E+00  5.498866225200E+00  6.417335172379E+00
 H  -3.808696231878E+00  5.069628316801E+00  5.492142407734E+00
 H  -4.840954187651E+00  5.454449031304E+00  6.638464508176E+00
 O  -2.984341091257E-01  1.812491776391E+00  6.017270721128E+00
 H  -5.774947729358E-01  2.546171540316E+00  6.585557163334E+00
 H  -1.109050096991E+00  1.390584595605E+00  5.621906971533E+00
 O  -1.212813520931E+01  5.211990812604E+00  6.409807890147E+00
 H  -1.193967463144E+01  4.674824861407E+00  5.547510402250E+00
 H  -1.663184563492E+00  5.028288526882E+00  6.771912307137E+00
 H  -3.808147187437E+00  7.165278115818E+00  6.110294978361E+00
 O   2.104385578966E+00 -1.661102918887E+00  5.826483187942E+00
 H   1.646239011944E+00 -1.035483458125E+00  6.409625754434E+00
 H  -3.850326765393E+00  3.243455882515E+00  6.493829736609E+00
 O  -3.805002023469E+00  2.340357457235E+00  6.125783322621E+00
 H  -3.367349695338E+00  1.774990864871E+00  6.781927839453E+00
 H  -8.415668906729E+00  2.019597047774E+00  6.970737008156E+00
 O  -8.548515403860E+00  2.340425086716E+00  6.065824963292E+00
 H  -9.195749908488E+00  1.730061154396E+00  5.601620599069E+00
 O  -6.589146298113E+00  5.542944764746E+00  6.413842756368E+00
 H  -7.036093699758E+00  5.061810933614E+00  5.649236369903E+00
 H  -7.218613776305E+00  5.483161469181E+00  7.150689764605E+00
 H  -7.075050121590E+00  7.481568400486E+00  6.032139565500E+00
 O  -1.995077002674E+00 -1.532986714336E+00  5.856654105449E+00
 H  -8.548691929503E+00  7.817675581991E+00  5.675542533265E+00
 H  -9.132403612466E+00  4.065807288596E+00  6.069878086069E+00
 H  -1.022333966165E+01  5.130545260661E+00  6.479109050483E+00
 O  -9.381198129026E+00  5.019995678984E+00  5.995558685170E+00
  111
CERIA BULK                               E -1.7584997846146E+04 DE-2.7E-07( 38)
 O  -1.857012993517E+00  1.041861326791E+00  4.078510319800E+00
 O   1.322212506920E+01  5.421130497699E+00  8.796193829759E-01
 O   1.708211343414E+01  5.442287494426E+00  9.031847675058E-01
 O   1.754780617590E+00  1.020726128607E+00  4.100058413149E+00
 O   1.121198840926E+01  4.305775960963E+00  4.126207918971E+00
 O  -5.662476985572E+00  1.026739086992E+00  4.422749138912E+00
 O   1.320809520968E+01  3.300883344513E+00  2.521471582299E+00
 O   1.128500234831E+01  6.466432994474E+00  2.440141108210E+00
 CE  1.752855257493E+00 -1.018297382436E+00  3.182657197112E+00
 CE -1.736462639277E-02  2.161414672587E+00  3.258758092645E+00
 CE  3.803084454985E+00 -4.444896968747E+00  3.092740090312E+00
 CE  5.769842508599E+00 -1.126530946894E+00  3.193802108251E+00
 CE  3.760754361621E+00  2.184514943341E+00  3.322121185072E+00
 CE  7.590373689174E+00 -4.352281799724E+00  3.313240805741E+00
 CE -1.895230428217E+00 -1.100243205617E+00  3.248375438760E+00
 CE -3.733263444829E+00  2.181169133793E+00  3.280542764871E+00
 CE  7.759589182756E-03 -4.334443625597E+00  3.159593256798E+00
 O  -3.491136197078E-02  6.841242215227E-03  2.391059702971E+00
 O  -1.878072283538E+00  3.236870529214E+00  2.389102766179E+00
 O   1.897676728135E+01  4.426337056110E+00  4.078815660190E+00
 O   3.764081576030E+00 -1.719024630320E-01  2.604779346433E+00
 O   1.525707247784E+01  4.451557982525E+00  4.115156195337E+00
 O   1.706295870439E+01  3.217062591509E+00  2.455090172599E+00
 O  -3.782252164853E+00  5.390113840545E-03  2.458262814878E+00
 O   1.701407628596E+01  7.556770035020E+00  3.922290070930E+00
 O   1.323405192398E+01  7.505967080379E+00  4.075123541109E+00
 O   1.863546830260E+00 -1.058625379269E+00  8.519457523383E-01
 O   1.873339393667E-02  2.171150578936E+00  8.652380767038E-01
 O   3.775686151610E+00 -4.377253601476E+00  8.215363432630E-01
 O   5.688852587943E+00 -1.089449270922E+00  8.472769264059E-01
 O   3.761569209864E+00  2.116852094160E+00  9.180789979855E-01
 O   1.909193713029E+01  6.603998038499E+00  2.488578786418E+00
 O  -1.903514750435E+00 -1.087682318426E+00  8.558365197587E-01
 O  -3.775025110072E+00  2.162259841448E+00  8.444848949876E-01
 O   1.510288754182E+01  6.485762782244E+00  2.396698910247E+00
 CE -8.076111133433E-03  5.127639654983E-03  5.610071560239E-03
 CE -1.893621855301E+00  3.233589990009E+00 -5.706257031255E-03
 CE  1.903065492998E+00 -3.246199757828E+00  3.582173914087E-03
 CE  3.781261214294E+00 -2.591792243567E-03  4.990430547353E-02
 CE  1.893106441955E+00  3.250742990626E+00  5.855700335228E-02
 CE  5.692840471388E+00 -3.269810221616E+00  1.957403613747E-02
 CE -3.783335089460E+00  2.694930113074E-04  3.367155316329E-02
 CE -5.670705911990E+00  3.235647052091E+00  6.059788260950E-02
 CE -1.903088438687E+00 -3.255267836030E+00  3.827925753512E-02
 O  -1.887937386739E+00  1.079093152974E+00 -7.713528612132E-01
 O  -3.798007820035E+00  4.342093667765E+00 -7.608304200889E-01
 O   1.763466255656E-03 -2.182228978635E+00 -7.596116889179E-01
 O   1.898922465518E+00  1.086195082110E+00 -7.608921956282E-01
 O   6.602858864395E-03  4.333576361153E+00 -7.622928076379E-01
 O   3.780718011516E+00 -2.172736875499E+00 -7.475562977299E-01
 O  -5.689666496963E+00  1.088141364737E+00 -7.458453259720E-01
 O  -7.556641903110E+00  4.334940986700E+00 -7.161371214498E-01
 O  -3.781712122385E+00 -2.181349170686E+00 -7.601918370242E-01
 O   0.000000000000E+00  0.000000000000E+00 -2.343480358560E+00
 O  -1.893765580789E+00  3.256833609860E+00 -2.343480358560E+00
 O   1.893765580794E+00 -3.256833609855E+00 -2.343480358560E+00
 O   3.784237009847E+00 -1.810635941583E-03 -2.343480358560E+00
 O   1.890471429052E+00  3.255022973925E+00 -2.343480358560E+00
 O   5.678002590648E+00 -3.258644245799E+00 -2.343480358560E+00
 O  -3.784237009847E+00  1.810635931587E-03 -2.343480358560E+00
 O  -5.678002590648E+00  3.258644245799E+00 -2.343480358560E+00
 O  -1.890471429057E+00 -3.255022973920E+00 -2.343480358560E+00
 CE -1.892667530212E+00  1.086214748598E+00 -3.124640478080E+00
 CE -3.786433110995E+00  4.343048358465E+00 -3.124640478080E+00
 CE  1.098050578413E-03 -2.170618861259E+00 -3.124640478080E+00
 CE  1.891569479633E+00  1.084404112661E+00 -3.124640478080E+00
 CE -2.196101156828E-03  4.341237722524E+00 -3.124640478080E+00
 CE  3.785335060425E+00 -2.172429497200E+00 -3.124640478080E+00
 CE -5.676904540099E+00  1.088025384521E+00 -3.124640478080E+00
 CE -7.570670120849E+00  4.344858994408E+00 -3.124640478080E+00
 CE -3.783138959271E+00 -2.168808225326E+00 -3.124640478080E+00
 O   1.892667530212E+00 -1.086214748598E+00 -3.905800597599E+00
 O  -1.098050578413E-03  2.170618861259E+00 -3.905800597599E+00
 O   3.786433110995E+00 -4.343048358465E+00 -3.905800597599E+00
 O   5.676904540099E+00 -1.088025384521E+00 -3.905800597599E+00
 O   3.783138959275E+00  2.168808225327E+00 -3.905800597599E+00
 O   7.570670120849E+00 -4.344858994408E+00 -3.905800597599E+00
 O  -1.891569479633E+00 -1.084404112661E+00 -3.905800597599E+00
 O  -3.785335060428E+00  2.172429497199E+00 -3.905800597599E+00
 O   2.196101155827E-03 -4.341237722525E+00 -3.905800597599E+00
 O  -1.265757314110E+01  7.321736030710E+00  4.953284796426E+00
 H  -5.464677988131E+00  1.228951657330E+00  5.353765992097E+00
 H  -1.231310008233E+01  6.624727812004E+00  5.604927171573E+00
 H  -1.339126453185E+01  7.782671037044E+00  5.448000981671E+00
 O  -3.873410148841E+00  5.498866225200E+00  6.417335172379E+00
 H  -3.808696231878E+00  5.069628316801E+00  5.492142407734E+00
 H  -4.840954187651E+00  5.454449031304E+00  6.638464508176E+00
 O  -2.984341091257E-01  1.812491776391E+00  6.017270721128E+00
 H  -5.774947729358E-01  2.546171540316E+00  6.585557163334E+00
 H  -1.109050096991E+00  1.390584595605E+00  5.621906971533E+00
 O  -1.212813520931E+01  5.211990812604E+00  6.409807890147E+00
 H  -1.193967463144E+01  4.674824861407E+00  5.547510402250E+00
 H  -1.663184563492E+00  5.028288526882E+00  6.771912307137E+00
 H  -3.808147187437E+00  7.165278115818E+00  6.110294978361E+00
 O   2.104385578966E+00 -1.661102918887E+00  5.826483187942E+00
 H   1.646239011944E+00 -1.035483458125E+00  6.409625754434E+00
 H  -3.850326765393E+00  3.243455882515E+00  6.493829736609E+00
 O  -3.805002023469E+00  2.340357457235E+00  6.125783322621E+00
 H  -3.367349695338E+00  1.774990864871E+00  6.781927839453E+00
 H  -8.415668906729E+00  2.019597047774E+00  6.970737008156E+00
 O  -8.548515403860E+00  2.340425086716E+00  6.065824963292E+00
 H  -9.195749908488E+00  1.730061154396E+00  5.601620599069E+00
 O  -6.589146298113E+00  5.542944764746E+00  6.413842756368E+00
 H  -7.036093699758E+00  5.061810933614E+00  5.649236369903E+00
 H  -7.218613776305E+00  5.483161469181E+00  7.150689764605E+00
 H  -7.075050121590E+00  7.481568400486E+00  6.032139565500E+00
 O  -1.995077002674E+00 -1.532986714336E+00  5.856654105449E+00
 H  -8.548691929503E+00  7.817675581991E+00  5.675542533265E+00
 H  -9.132403612466E+00  4.065807288596E+00  6.069878086069E+00
 H  -1.022333966165E+01  5.130545260661E+00  6.479109050483E+00
 O  -9.381198129026E+00  5.019995678984E+00  5.995558685170E+00
