  111
Ceria bulk                              
 O  -1.885812037650E+00  1.066123085591E+00  4.087230775567E+00
 O  -3.854175740440E+00  4.262781318653E+00  4.113052029534E+00
 O  -4.624321799000E-02 -2.125325595279E+00  4.103762162373E+00
 O   1.743580924971E+00  1.018376277465E+00  4.086743269239E+00
 O   7.138704033000E-02  4.256598840468E+00  4.114754229020E+00
 O  -5.512406414494E+00  1.016233909763E+00  4.089062224749E+00
 O  -7.542405186626E+00  4.424473091651E+00  4.112949242030E+00
 O  -3.719072712735E+00 -2.120915995440E+00  4.103323686251E+00
 CE  1.701757872067E+00 -1.018020925321E+00  3.174532931612E+00
 CE -5.637887873000E-03  2.173736981026E+00  3.246458786537E+00
 CE  3.773397140379E+00 -4.487229754431E+00  3.221485113666E+00
 CE  5.848250627618E+00 -1.017720365271E+00  3.175539069375E+00
 CE  3.773661042547E+00  2.136219061034E+00  3.313388852813E+00
 CE  7.564463249907E+00 -4.365817700111E+00  3.266061342343E+00
 CE -1.886265385822E+00 -1.083640117458E+00  3.247429224701E+00
 CE -3.769094713983E+00  2.172351833524E+00  3.245337736234E+00
 CE -1.565375867400E-02 -4.363963375704E+00  3.265049121209E+00
 O  -5.645992621500E-02 -4.542772277000E-03  2.361460404944E+00
 O  -1.888499234235E+00  3.203105304105E+00  2.395793731301E+00
 O   1.951318313933E+00 -3.159780030223E+00  2.566888989095E+00
 O   3.773725957034E+00 -3.168372147920E-01  2.709298861675E+00
 O   1.881378781692E+00  3.266997448628E+00  2.407825994605E+00
 O   5.594390667548E+00 -3.160029504683E+00  2.571703687028E+00
 O  -3.714130511173E+00 -2.238770837000E-03  2.359721570135E+00
 O  -5.656567271184E+00  3.263054989735E+00  2.407065091005E+00
 O  -1.882415454803E+00 -3.253774839082E+00  2.405793055341E+00
 O   1.865645457753E+00 -1.051667837990E+00  8.647349328010E-01
 O   1.021814950900E-02  2.163320304679E+00  8.418503902040E-01
 O   3.774563944217E+00 -4.348788436279E+00  8.574303313020E-01
 O   5.683174675571E+00 -1.052685688468E+00  8.636998691970E-01
 O   3.771459630032E+00  2.044721514803E+00  9.193340740810E-01
 O   7.501803150883E+00 -4.307099458950E+00  9.068690903920E-01
 O  -1.886409011211E+00 -1.101095950928E+00  8.203302165690E-01
 O  -3.785171229696E+00  2.164484876026E+00  8.398318634050E-01
 O   4.800091632500E-02 -4.310395261676E+00  9.070711416690E-01
 CE -1.200781751200E-02  4.759883832000E-03  2.156788394000E-03
 CE -1.887052461246E+00  3.253389578046E+00  2.670827160100E-02
 CE  1.891250537248E+00 -3.255614998980E+00  6.011719640700E-02
 CE  3.773962288606E+00 -1.217054686700E-02  4.008031883900E-02
 CE  1.883734145016E+00  3.240180266830E+00  7.487390731700E-02
 CE  5.657407964067E+00 -3.255321691209E+00  6.116987007900E-02
 CE -3.761318485932E+00  4.763572272000E-03  2.072929702000E-03
 CE -5.657678885372E+00  3.240208268539E+00  7.363760451900E-02
 CE -1.886284981391E+00 -3.252597323345E+00  6.056820452600E-02
 O  -1.886506206340E+00  1.083480560621E+00 -7.936271103870E-01
 O  -3.785116762191E+00  4.347680302387E+00 -7.660919331910E-01
 O   1.154588042800E-02 -2.183538761481E+00 -7.742735772240E-01
 O   1.893310815560E+00  1.081634248914E+00 -7.849228499250E-01
 O   1.055380397100E-02  4.347201178631E+00 -7.653976028680E-01
 O   3.773592107153E+00 -2.171359377621E+00 -7.557647005600E-01
 O  -5.668082964594E+00  1.083033919579E+00 -7.845724720630E-01
 O  -7.546900492370E+00  4.323440643257E+00 -7.152763959850E-01
 O  -3.783400229445E+00 -2.182589518211E+00 -7.753433362780E-01
 O   0.000000000000E+00  0.000000000000E+00 -2.343480358560E+00
 O  -1.887075694132E+00  3.253874465006E+00 -2.343480358560E+00
 O   1.887075694138E+00 -3.253874465001E+00 -2.343480358560E+00
 O   3.773679963661E+00 -2.828051700000E-04 -2.343480358560E+00
 O   1.886604269522E+00  3.253591659840E+00 -2.343480358560E+00
 O   5.660755657807E+00 -3.254157270172E+00 -2.343480358560E+00
 O  -3.773679963661E+00  2.828051610000E-04 -2.343480358560E+00
 O  -5.660755657807E+00  3.254157270172E+00 -2.343480358560E+00
 O  -1.886604269527E+00 -3.253591659835E+00 -2.343480358560E+00
 CE -1.886918552599E+00  1.084719090056E+00 -3.124640478080E+00
 CE -3.773994246726E+00  4.338593555068E+00 -3.124640478080E+00
 CE  1.571415380000E-04 -2.169155374946E+00 -3.124640478080E+00
 CE  1.886761411061E+00  1.084436284890E+00 -3.124640478080E+00
 CE -3.142830729999E-04  4.338310749898E+00 -3.124640478080E+00
 CE  3.773837105199E+00 -2.169438180115E+00 -3.124640478080E+00
 CE -5.660598516300E+00  1.085001895211E+00 -3.124640478080E+00
 CE -7.547674210394E+00  4.338876360238E+00 -3.124640478080E+00
 CE -3.773522822125E+00 -2.168872569783E+00 -3.124640478080E+00
 O   1.886918552599E+00 -1.084719090056E+00 -3.905800597599E+00
 O  -1.571415380000E-04  2.169155374946E+00 -3.905800597599E+00
 O   3.773994246726E+00 -4.338593555068E+00 -3.905800597599E+00
 O   5.660598516300E+00 -1.085001895211E+00 -3.905800597599E+00
 O   3.773522822129E+00  2.168872569784E+00 -3.905800597599E+00
 O   7.547674210394E+00 -4.338876360238E+00 -3.905800597599E+00
 O  -1.886761411061E+00 -1.084436284890E+00 -3.905800597599E+00
 O  -3.773837105201E+00  2.169438180115E+00 -3.905800597599E+00
 O   3.142830710001E-04 -4.338310749898E+00 -3.905800597599E+00
 O  -2.098598710222E-01 -4.351429234856E+00  6.613400000000E+00
 H  -7.615091422098E+00  4.605123541846E+00  4.983600000000E+00
 H  -5.259259659169E+00  4.881481763799E+00  7.175200000000E+00
 H  -6.664992843008E+00  4.876901735941E+00  6.457400000000E+00
 O   2.635648663149E+00  2.380266113459E+00  7.597600000000E+00
 H   2.454920501828E+00  2.211313300481E+00  8.538000000000E+00
 H   2.298724501826E+00  3.299893933494E+00  7.402600000000E+00
 O   5.620527373149E+00 -1.158685099918E+00  6.704000000000E+00
 H   5.514275926479E+00 -3.291704348471E-01  7.206800000000E+00
 H   4.807261076923E+00 -1.672258450982E+00  6.765600000000E+00
 O  -5.730372008406E+00  1.580377134438E+00  7.422400000000E+00
 H  -5.656382867698E+00  1.495546769105E+00  6.408400000000E+00
 H  -6.625040457667E+00  1.901685245725E+00  7.602200000000E+00
 H   8.100923688336E-01  4.476132377479E+00  6.221000000000E+00
 O   1.596039843613E+00  4.693064934166E+00  6.836400000000E+00
 H   6.984268073927E+00 -4.397943621381E+00  7.475200000000E+00
 H  -4.109707365217E+00  3.908106448969E+00  8.999600000000E+00
 O  -4.189794748878E+00  3.784242833823E+00  8.039200000000E+00
 H  -4.654631285597E+00  2.928903789225E+00  7.899800000000E+00
 H  -2.538482068480E+00 -4.788894159040E-01  7.251600000000E+00
 O  -2.307649769392E+00 -1.209142022053E+00  6.668600000000E+00
 H  -3.141130394128E+00 -1.636132021905E+00  6.381600000000E+00
 H  -1.242691547647E+00  4.426016040605E+00  6.575400000000E+00
 O   3.742054325956E+00 -4.658129437983E+00  6.698000000000E+00
 H  -2.711838592741E+00  4.642824761441E+00  7.022200000000E+00
 H   2.811715518074E+00 -1.867332884528E+00  7.073800000000E+00
 H   1.342625085251E+00 -1.650621779926E+00  7.520600000000E+00
 O   2.135177711159E+00 -1.189952575856E+00  7.196400000000E+00
 O  -6.269773789416E-01  1.813873009743E+00  7.253800000000E+00
 H  -1.320240949321E+00  1.304390369133E+00  7.693400000000E+00
 H  -1.652300643250E-01  2.337038679312E+00  7.980800000000E+00
