  142
Ceria bulk                              
 O  -1.891004574951E+00  1.077740630428E+00  4.077711150535E+00
 O  -3.811550823584E+00  4.276942891698E+00  4.099279868236E+00
 O  -2.314038035800E-02 -2.115178063139E+00  4.092973610174E+00
 O   1.760564582424E+00  1.031399259399E+00  4.080746165286E+00
 O   2.871601957900E-02  4.281402403928E+00  4.151589985462E+00
 O  -5.539260598351E+00  1.053288937356E+00  4.122973316898E+00
 O  -7.553609796027E+00  4.402160872076E+00  4.257068493316E+00
 O  -3.741884738749E+00 -2.125299254687E+00  4.121316132111E+00
 CE  1.709227236859E+00 -1.012476438335E+00  3.187459231690E+00
 CE -1.411003063800E-02  2.164148149429E+00  3.262191955593E+00
 CE  3.758933798401E+00 -4.484493477821E+00  3.229368596617E+00
 CE  5.834513111585E+00 -1.012891019449E+00  3.203224063847E+00
 CE  3.752998517077E+00  2.091370886357E+00  3.303446308257E+00
 CE  7.499466147696E+00 -4.341543790697E+00  3.289012894911E+00
 CE -1.882508238566E+00 -1.080628079012E+00  3.268348656378E+00
 CE -3.762808651912E+00  2.181418869022E+00  3.254706976426E+00
 CE  2.924072387100E-02 -4.335496439211E+00  3.298878313120E+00
 O  -5.359428898200E-02 -1.599318455000E-03  2.374852882119E+00
 O  -1.888470658584E+00  3.219061005428E+00  2.415524284103E+00
 O   1.975590106608E+00 -3.164568152217E+00  2.581752825466E+00
 O   3.771929353582E+00 -3.011904511860E-01  2.721346538464E+00
 O   1.885747278668E+00  3.259722014061E+00  2.445835540263E+00
 O   5.561048283457E+00 -3.159577200210E+00  2.579073018455E+00
 O  -3.722585884051E+00  1.830538100000E-03  2.389931838935E+00
 O  -5.668777513371E+00  3.258153195261E+00  2.441400915593E+00
 O  -1.884591483829E+00 -3.257744874755E+00  2.446167352113E+00
 O   1.869642957211E+00 -1.051992653449E+00  8.742207725350E-01
 O   7.516913432000E-03  2.166295419827E+00  8.541643029320E-01
 O   3.771729720472E+00 -4.350893333469E+00  8.750913956660E-01
 O   5.676403598893E+00 -1.050854369174E+00  8.781670066550E-01
 O   3.767136747080E+00  2.039802220865E+00  9.430590749910E-01
 O   7.488127715724E+00 -4.306347329749E+00  9.258434708010E-01
 O  -1.887713102201E+00 -1.101777811986E+00  8.340058155440E-01
 O  -3.783676548053E+00  2.167477225081E+00  8.540457584660E-01
 O   5.191891948800E-02 -4.308289705678E+00  9.288796548310E-01
 CE -1.306680021500E-02  3.947349804000E-03  6.393006934000E-03
 CE -1.888362993416E+00  3.252672657460E+00  2.958485296600E-02
 CE  1.890976312684E+00 -3.254568316325E+00  6.373676315300E-02
 CE  3.769973960420E+00 -1.392810375200E-02  4.299968321700E-02
 CE  1.879949192970E+00  3.239580372545E+00  8.226851775600E-02
 CE  5.649858901799E+00 -3.253126153490E+00  6.441854245300E-02
 CE -3.762723390090E+00  4.033481897000E-03  9.217778228000E-03
 CE -5.657483147095E+00  3.239922399481E+00  8.128195253200E-02
 CE -1.887578685165E+00 -3.251719825325E+00  7.160205503600E-02
 O  -1.885870395929E+00  1.085857318744E+00 -7.819907268310E-01
 O  -3.781548668032E+00  4.344824305030E+00 -7.544063413880E-01
 O   1.237163319800E-02 -2.183818801798E+00 -7.621890067830E-01
 O   1.894524625409E+00  1.082447467698E+00 -7.744351169920E-01
 O   8.497399747000E-03  4.344315327075E+00 -7.544290135260E-01
 O   3.772635270969E+00 -2.171016935237E+00 -7.486030261250E-01
 O  -5.667731074123E+00  1.083263186060E+00 -7.720517018980E-01
 O  -7.544333546195E+00  4.319490241663E+00 -7.003503705440E-01
 O  -3.783544012069E+00 -2.182407704420E+00 -7.612488244120E-01
 O   0.000000000000E+00  0.000000000000E+00 -2.343480358560E+00
 O  -1.885905615526E+00  3.252678632711E+00 -2.343480358560E+00
 O   1.885905615532E+00 -3.252678632706E+00 -2.343480358560E+00
 O   3.771943911063E+00  6.747135000000E-05 -2.343480358560E+00
 O   1.886038295530E+00  3.252746104065E+00 -2.343480358560E+00
 O   5.657849526603E+00 -3.252611161357E+00 -2.343480358560E+00
 O  -3.771943911063E+00 -6.747135900000E-05 -2.343480358560E+00
 O  -5.657849526603E+00  3.252611161357E+00 -2.343480358560E+00
 O  -1.886038295535E+00 -3.252746104060E+00 -2.343480358560E+00
 CE -1.885949842198E+00  1.084203720451E+00 -3.124640478080E+00
 CE -3.771855457719E+00  4.336882353167E+00 -3.124640478080E+00
 CE -4.422666700024E-05 -2.168474912256E+00 -3.124640478080E+00
 CE  1.885994068864E+00  1.084271191805E+00 -3.124640478080E+00
 CE  8.845333600018E-05  4.336949824517E+00 -3.124640478080E+00
 CE  3.771899684396E+00 -2.168407440905E+00 -3.124640478080E+00
 CE -5.657893753300E+00  1.084136249086E+00 -3.124640478080E+00
 CE -7.543799368788E+00  4.336814881817E+00 -3.124640478080E+00
 CE -3.771988137731E+00 -2.168542383613E+00 -3.124640478080E+00
 O   1.885949842198E+00 -1.084203720451E+00 -3.905800597599E+00
 O   4.422666700024E-05  2.168474912256E+00 -3.905800597599E+00
 O   3.771855457719E+00 -4.336882353167E+00 -3.905800597599E+00
 O   5.657893753300E+00 -1.084136249086E+00 -3.905800597599E+00
 O   3.771988137735E+00  2.168542383614E+00 -3.905800597599E+00
 O   7.543799368788E+00 -4.336814881817E+00 -3.905800597599E+00
 O  -1.885994068864E+00 -1.084271191805E+00 -3.905800597599E+00
 O  -3.771899684398E+00  2.168407440905E+00 -3.905800597599E+00
 O  -8.845333800005E-05 -4.336949824517E+00 -3.905800597599E+00
 O  -1.573267970480E-01 -4.346784125143E+00  6.540954172944E+00
 H  -7.642974188467E+00  4.581990849420E+00  5.187015076025E+00
 H  -5.220405351711E+00  4.878222186889E+00  7.120422986334E+00
 H  -6.690174739155E+00  4.958970124445E+00  6.579812795257E+00
 O   2.744321494364E+00  2.387659611449E+00  7.582572199104E+00
 H   2.548192918478E+00  2.204477888903E+00  8.511758872473E+00
 H   2.349082487805E+00  3.274590580465E+00  7.361933953299E+00
 O   5.597518163292E+00 -1.188938211904E+00  6.560913864076E+00
 H   5.518178023286E+00 -3.605659192020E-01  7.084557805356E+00
 H   4.822589301792E+00 -1.738157327370E+00  6.808061263403E+00
 O  -5.742830141276E+00  1.570361725109E+00  7.320328762008E+00
 H  -5.667280048201E+00  1.502299070954E+00  6.337244849519E+00
 H  -6.659399952834E+00  1.878683013642E+00  7.506077176441E+00
 H   8.264202212270E-01  4.456368007903E+00  6.138077548521E+00
 O   1.591208525132E+00  4.675109349656E+00  6.727030284848E+00
 H   6.968799012814E+00 -4.390869462546E+00  7.350411354638E+00
 H  -4.105224909726E+00  3.910943747639E+00  8.962772041190E+00
 O  -4.177459842123E+00  3.781409630964E+00  8.001635342889E+00
 H  -4.649824653968E+00  2.923474794446E+00  7.850084608121E+00
 H  -2.554025048675E+00 -4.846970823600E-01  7.157419249311E+00
 O  -2.328123404597E+00 -1.243441351413E+00  6.601391519262E+00
 H  -3.181986840279E+00 -1.625229546874E+00  6.327973757805E+00
 H  -1.256459698201E+00  4.427576201309E+00  6.518636341469E+00
 O   3.729145354956E+00 -4.632792218927E+00  6.585164527594E+00
 H  -2.711373146014E+00  4.660357032363E+00  6.952977295035E+00
 H   2.823091520002E+00 -1.939758712251E+00  7.151032333118E+00
 H   1.316348847694E+00 -1.641844314717E+00  7.381925342900E+00
 O   2.149223079460E+00 -1.237218995429E+00  7.083054922720E+00
 O  -4.902193172760E-01  1.790138809114E+00  7.244495043668E+00
 H  -1.266016734171E+00  1.331719280958E+00  7.617815836589E+00
 H  -3.013462190940E-01  2.494924948831E+00  7.960128495243E+00
 O  -2.101671372660E-01 -4.350083697923E+00  6.613400000000E+00
 H  -7.611160858656E+00  4.602972287495E+00  4.983600000000E+00
 H  -5.256387215899E+00  4.879462433038E+00  7.175200000000E+00
 H  -6.661474137740E+00  4.874753393474E+00  6.457400000000E+00
 O   2.634657058297E+00  2.379764022888E+00  7.597600000000E+00
 H   2.453996359640E+00  2.210847438057E+00  8.538000000000E+00
 H   2.297973234753E+00  3.299072096734E+00  7.402600000000E+00
 O   5.617834206548E+00 -1.157800058411E+00  6.704000000000E+00
 H   5.511708617612E+00 -3.285554658595E-01  7.206800000000E+00
 H   4.804894382401E+00 -1.671287774311E+00  6.765600000000E+00
 O  -5.727589176694E+00  1.579349617938E+00  7.422400000000E+00
 H  -5.653641945802E+00  1.494552729270E+00  6.408400000000E+00
 H  -6.621816229661E+00  1.900473914297E+00  7.602200000000E+00
 H   8.101350792363E-01  4.474803422120E+00  6.221000000000E+00
 O   1.595741121529E+00  4.691740862564E+00  6.836400000000E+00
 H   6.980646937688E+00 -4.395915896635E+00  7.475200000000E+00
 H  -4.107454085155E+00  3.906499134396E+00  8.999600000000E+00
 O  -4.187516120232E+00  3.782666942452E+00  8.039200000000E+00
 H  -4.652218190481E+00  2.927553075794E+00  7.899800000000E+00
 H  -2.537358717439E+00 -4.789747564263E-01  7.251600000000E+00
 O  -2.306700376246E+00 -1.208976867052E+00  6.668600000000E+00
 H  -3.139837194729E+00 -1.635910268138E+00  6.381600000000E+00
 H  -1.241709134739E+00  4.424512313299E+00  6.575400000000E+00
 O   3.739900577762E+00 -4.656320963964E+00  6.698000000000E+00
 H  -2.710160200512E+00  4.641116689760E+00  7.022200000000E+00
 H   2.810248742389E+00 -1.866486195941E+00  7.073800000000E+00
 H   1.341854253785E+00 -1.649979399838E+00  7.520600000000E+00
 O   2.134085027171E+00 -1.189381157467E+00  7.196400000000E+00
 O  -6.265206211653E-01  1.813245829213E+00  7.253800000000E+00
 H  -1.319512545352E+00  1.303858676486E+00  7.693400000000E+00
 H  -1.649371772945E-01  2.336290234518E+00  7.980800000000E+00
