  109
Ceria bulk                              
 O  -1.771399961731E+00  1.019759817054E+00  4.182516838625E+00
 O  -3.751288552694E+00  4.372690181158E+00  4.035515529324E+00
 O  -1.375299667530E-01 -2.240365146650E+00  4.137281771408E+00
 O   1.875802858412E+00  1.243271099046E+00  4.202997652125E+00
 O  -1.051916421990E-01  4.304471737603E+00  4.157879290035E+00
 O  -5.660760301938E+00  1.194115858949E+00  4.175492834023E+00
 O  -7.512956492107E+00  4.344645712192E+00  4.052396854225E+00
 O  -3.651384045514E+00 -2.173736512392E+00  4.137494927654E+00
 CE  1.842696368989E+00 -1.061797862473E+00  3.371120620025E+00
 CE -4.829515223000E-03  2.162683532489E+00  3.260201067189E+00
 CE  3.754699504957E+00 -4.417298522109E+00  3.220718500697E+00
 CE  5.682172301468E+00 -1.057772134837E+00  3.284473686138E+00
 CE  3.751546173974E+00  2.181421057181E+00  3.217350328530E+00
 CE  7.535584434416E+00 -4.343273761435E+00  3.278757237767E+00
 CE -1.866275733596E+00 -1.079332789867E+00  3.215692155321E+00
 CE -3.766129299959E+00  2.195038807738E+00  3.333630437626E+00
 CE  1.464492090900E-02 -4.344920265111E+00  3.231221515319E+00
 O  -4.159643320000E-04  2.383342405600E-02  2.430909088123E+00
 O  -1.891656436663E+00  3.201190765404E+00  2.442643265872E+00
 O   1.926565135073E+00 -3.246063019991E+00  2.465527843831E+00
 O   3.740344730244E+00  1.613726124000E-02  2.477091890638E+00
 O   1.849741343502E+00  3.289983752631E+00  2.429730291804E+00
 O   5.624021660538E+00 -3.305113461065E+00  2.465601370906E+00
 O  -3.709615839516E+00  8.088145084600E-02  2.461030575487E+00
 O  -5.624491155288E+00  3.256319942783E+00  2.426051034065E+00
 O  -1.891022190708E+00 -3.282301323817E+00  2.393098197310E+00
 O   1.876784667215E+00 -1.087592072298E+00  8.424513998180E-01
 O   1.708916983000E-03  2.182383057494E+00  8.675270643440E-01
 O   3.759163044529E+00 -4.375086355309E+00  8.762021189650E-01
 O   5.652321895127E+00 -1.089112870275E+00  8.778535906450E-01
 O   3.747706514812E+00  2.180724196359E+00  8.819937264230E-01
 O   7.510483464053E+00 -4.341384116256E+00  8.635942897900E-01
 O  -1.879516268506E+00 -1.090965106676E+00  8.679444091530E-01
 O  -3.766807977745E+00  2.194492060923E+00  8.536628744910E-01
 O   2.163609023700E-02 -4.336005637592E+00  8.818628500970E-01
 CE  1.325692095100E-02 -5.299991560000E-04  6.133288596300E-02
 CE -1.886299680295E+00  3.244819451730E+00  4.638115472300E-02
 CE  1.886947694925E+00 -3.243630345094E+00  7.091326610000E-02
 CE  3.753213831967E+00 -8.832881341000E-03  8.826383762500E-02
 CE  1.868448329343E+00  3.262243914371E+00  5.177947729200E-02
 CE  5.643199569346E+00 -3.256103299358E+00  7.118274441500E-02
 CE -3.761063294857E+00  1.373340899900E-02  6.669500394700E-02
 CE -5.628522407550E+00  3.260447424496E+00  5.311028183100E-02
 CE -1.878869156451E+00 -3.253715002591E+00  4.865650844900E-02
 O  -1.877284535932E+00  1.090759546030E+00 -7.841894116810E-01
 O  -3.760304493030E+00  4.349072527806E+00 -7.903650381640E-01
 O  -2.183750368000E-03 -2.178637000986E+00 -7.853383284240E-01
 O   1.884279862081E+00  1.097181733370E+00 -7.806426966440E-01
 O  -4.208476757000E-03  4.340950103363E+00 -7.879460102560E-01
 O   3.767548708332E+00 -2.179881935900E+00 -7.699268353540E-01
 O  -5.645433591785E+00  1.096203391465E+00 -7.759832573850E-01
 O  -7.513729487130E+00  4.348718883613E+00 -7.809474856370E-01
 O  -3.753094758240E+00 -2.169492304356E+00 -7.845607127200E-01
 O   0.000000000000E+00  0.000000000000E+00 -2.343480358560E+00
 O  -1.880953294154E+00  3.257209406481E+00 -2.343480358560E+00
 O   1.880953294160E+00 -3.257209406476E+00 -2.343480358560E+00
 O   3.757487043961E+00 -2.522622523000E-03 -2.343480358560E+00
 O   1.876533749801E+00  3.254686783960E+00 -2.343480358560E+00
 O   5.638440338127E+00 -3.259732028999E+00 -2.343480358560E+00
 O  -3.757487043961E+00  2.522622513000E-03 -2.343480358560E+00
 O  -5.638440338127E+00  3.259732028999E+00 -2.343480358560E+00
 O  -1.876533749807E+00 -3.254686783955E+00 -2.343480358560E+00
 CE -1.879480112706E+00  1.086577342997E+00 -3.124640478080E+00
 CE -3.760433406855E+00  4.343786749485E+00 -3.124640478080E+00
 CE  1.473181453000E-03 -2.170632063477E+00 -3.124640478080E+00
 CE  1.878006931254E+00  1.084054720479E+00 -3.124640478080E+00
 CE -2.946362901000E-03  4.341264126963E+00 -3.124640478080E+00
 CE  3.758960225415E+00 -2.173154686000E+00 -3.124640478080E+00
 CE -5.636967156709E+00  1.089099965508E+00 -3.124640478080E+00
 CE -7.517920450823E+00  4.346309372012E+00 -3.124640478080E+00
 CE -3.756013862513E+00 -2.168109440961E+00 -3.124640478080E+00
 O   1.879480112706E+00 -1.086577342997E+00 -3.905800597599E+00
 O  -1.473181453000E-03  2.170632063477E+00 -3.905800597599E+00
 O   3.760433406855E+00 -4.343786749485E+00 -3.905800597599E+00
 O   5.636967156709E+00 -1.089099965508E+00 -3.905800597599E+00
 O   3.756013862516E+00  2.168109440961E+00 -3.905800597599E+00
 O   7.517920450823E+00 -4.346309372012E+00 -3.905800597599E+00
 O  -1.878006931254E+00 -1.084054720479E+00 -3.905800597599E+00
 O  -3.758960225417E+00  2.173154686000E+00 -3.905800597599E+00
 O   2.946362900000E-03 -4.341264126963E+00 -3.905800597599E+00
 O   7.994946244124E+00  2.081478385698E+00  5.972736342878E+00
 H   1.430004275615E+01 -8.369265586692E+00  5.686967317411E+00
 O   2.502839673975E+00  1.175546545573E+00  6.737859161618E+00
 H   1.885015405944E+00  1.795956574797E+00  7.200423450938E+00
 H   2.243831503390E+00  1.266753481816E+00  5.759544292707E+00
 O   6.362991305113E+00 -6.714849714290E+00  7.662326861364E+00
 H   7.283646970116E+00  1.681636912673E+00  6.507394597165E+00
 H  -1.328488402180E-01  2.874138067803E+00  7.235187072338E+00
 O  -6.009758306837E+00  1.816896139670E+00  6.723862908273E+00
 H  -5.864898073150E+00  1.542466743952E+00  5.767613828090E+00
 H  -6.945971559466E+00  1.565644413570E+00  6.905699201250E+00
 H  -3.941509574309E+00 -3.790495676606E+00  6.434591573080E+00
 O   7.166807055178E+00 -4.696796773878E+00  6.021413751435E+00
 H   6.753514136633E+00 -5.960267497712E+00  7.139884036410E+00
 O  -4.507806971390E-01 -2.518608529616E+00  6.737435403956E+00
 H  -3.981353424180E-01 -2.383828552910E+00  5.739931787038E+00
 H  -4.487207464440E-01 -3.509424307683E+00  6.818417293484E+00
 O   3.880949812323E+00 -2.314502581323E+00  4.438043837412E+00
 H   3.479891011647E+00 -2.180348870666E+00  5.323704983571E+00
 O   2.008558946565E+00 -1.371885220985E+00  6.126472239956E+00
 H   2.136155849050E+00 -4.805257847370E-01  6.552071265070E+00
 H   1.198633620306E+00 -1.794200746422E+00  6.508100986614E+00
 H  -5.001903699793E+00 -4.777705068492E+00  5.603859278288E+00
 H  -7.022047770596E+00  4.491543320678E+00  5.729983089474E+00
 O  -7.117877917380E-01 -5.187070708202E+00  6.455137690090E+00
 H  -6.073684897416E+00  3.656777245771E+00  6.645273707789E+00
 O   2.301247787980E+00  7.530146115877E+00  6.778917848981E+00
 H   3.278161033019E+00  7.453978762708E+00  6.896377223337E+00
 H   2.180275425238E+00  7.671004655332E+00  5.795010377821E+00
  109
Ceria bulk                              
 O  -1.771399961731E+00  1.019759817054E+00  4.182516838625E+00
 O  -3.751288552694E+00  4.372690181158E+00  4.035515529324E+00
 O  -1.375299667530E-01 -2.240365146651E+00  4.137281771408E+00
 O   1.875802858412E+00  1.243271099046E+00  4.202997652125E+00
 O  -1.051916421994E-01  4.304471737603E+00  4.157879290035E+00
 O  -5.660760301938E+00  1.194115858949E+00  4.175492834023E+00
 O  -7.512956492107E+00  4.344645712192E+00  4.052396854225E+00
 O  -3.651384045514E+00 -2.173736512392E+00  4.137494927654E+00
 CE  1.842696368989E+00 -1.061797862473E+00  3.371120620025E+00
 CE -4.829515223280E-03  2.162683532489E+00  3.260201067189E+00
 CE  3.754699504957E+00 -4.417298522109E+00  3.220718500697E+00
 CE  5.682172301468E+00 -1.057772134837E+00  3.284473686138E+00
 CE  3.751546173974E+00  2.181421057181E+00  3.217350328530E+00
 CE  7.535584434416E+00 -4.343273761435E+00  3.278757237767E+00
 CE -1.866275733596E+00 -1.079332789867E+00  3.215692155321E+00
 CE -3.766129299959E+00  2.195038807738E+00  3.333630437626E+00
 CE  1.464492090929E-02 -4.344920265111E+00  3.231221515319E+00
 O  -4.159643316355E-04  2.383342405556E-02  2.430909088123E+00
 O  -1.891656436663E+00  3.201190765404E+00  2.442643265872E+00
 O   1.926565135073E+00 -3.246063019991E+00  2.465527843831E+00
 O   3.740344730244E+00  1.613726124022E-02  2.477091890638E+00
 O   1.849741343502E+00  3.289983752631E+00  2.429730291804E+00
 O   5.624021660538E+00 -3.305113461065E+00  2.465601370906E+00
 O  -3.709615839516E+00  8.088145084608E-02  2.461030575487E+00
 O  -5.624491155288E+00  3.256319942783E+00  2.426051034065E+00
 O  -1.891022190708E+00 -3.282301323817E+00  2.393098197310E+00
 O   1.876784667215E+00 -1.087592072298E+00  8.424513998185E-01
 O   1.708916982584E-03  2.182383057494E+00  8.675270643442E-01
 O   3.759163044529E+00 -4.375086355309E+00  8.762021189646E-01
 O   5.652321895128E+00 -1.089112870275E+00  8.778535906449E-01
 O   3.747706514812E+00  2.180724196359E+00  8.819937264234E-01
 O   7.510483464053E+00 -4.341384116256E+00  8.635942897903E-01
 O  -1.879516268506E+00 -1.090965106676E+00  8.679444091532E-01
 O  -3.766807977745E+00  2.194492060923E+00  8.536628744909E-01
 O   2.163609023705E-02 -4.336005637592E+00  8.818628500965E-01
 CE  1.325692095086E-02 -5.299991557837E-04  6.133288596284E-02
 CE -1.886299680295E+00  3.244819451730E+00  4.638115472266E-02
 CE  1.886947694925E+00 -3.243630345094E+00  7.091326610002E-02
 CE  3.753213831967E+00 -8.832881340601E-03  8.826383762493E-02
 CE  1.868448329343E+00  3.262243914371E+00  5.177947729208E-02
 CE  5.643199569346E+00 -3.256103299358E+00  7.118274441521E-02
 CE -3.761063294857E+00  1.373340899921E-02  6.669500394685E-02
 CE -5.628522407550E+00  3.260447424496E+00  5.311028183083E-02
 CE -1.878869156451E+00 -3.253715002591E+00  4.865650844886E-02
 O  -1.877284535932E+00  1.090759546030E+00 -7.841894116814E-01
 O  -3.760304493030E+00  4.349072527806E+00 -7.903650381640E-01
 O  -2.183750367685E-03 -2.178637000986E+00 -7.853383284237E-01
 O   1.884279862081E+00  1.097181733370E+00 -7.806426966443E-01
 O  -4.208476756655E-03  4.340950103363E+00 -7.879460102565E-01
 O   3.767548708332E+00 -2.179881935900E+00 -7.699268353538E-01
 O  -5.645433591784E+00  1.096203391465E+00 -7.759832573854E-01
 O  -7.513729487130E+00  4.348718883613E+00 -7.809474856367E-01
 O  -3.753094758240E+00 -2.169492304356E+00 -7.845607127203E-01
 O   0.000000000000E+00  0.000000000000E+00 -2.343480358560E+00
 O  -1.880953294154E+00  3.257209406481E+00 -2.343480358560E+00
 O   1.880953294160E+00 -3.257209406476E+00 -2.343480358560E+00
 O   3.757487043961E+00 -2.522622523195E-03 -2.343480358560E+00
 O   1.876533749801E+00  3.254686783960E+00 -2.343480358560E+00
 O   5.638440338127E+00 -3.259732028999E+00 -2.343480358560E+00
 O  -3.757487043961E+00  2.522622513199E-03 -2.343480358560E+00
 O  -5.638440338127E+00  3.259732028999E+00 -2.343480358560E+00
 O  -1.876533749807E+00 -3.254686783955E+00 -2.343480358560E+00
 CE -1.879480112706E+00  1.086577342997E+00 -3.124640478080E+00
 CE -3.760433406855E+00  4.343786749485E+00 -3.124640478080E+00
 CE  1.473181453367E-03 -2.170632063477E+00 -3.124640478080E+00
 CE  1.878006931254E+00  1.084054720479E+00 -3.124640478080E+00
 CE -2.946362900733E-03  4.341264126963E+00 -3.124640478080E+00
 CE  3.758960225415E+00 -2.173154686001E+00 -3.124640478080E+00
 CE -5.636967156710E+00  1.089099965508E+00 -3.124640478080E+00
 CE -7.517920450823E+00  4.346309372012E+00 -3.124640478080E+00
 CE -3.756013862513E+00 -2.168109440961E+00 -3.124640478080E+00
 O   1.879480112706E+00 -1.086577342997E+00 -3.905800597599E+00
 O  -1.473181453367E-03  2.170632063477E+00 -3.905800597599E+00
 O   3.760433406855E+00 -4.343786749485E+00 -3.905800597599E+00
 O   5.636967156710E+00 -1.089099965508E+00 -3.905800597599E+00
 O   3.756013862516E+00  2.168109440961E+00 -3.905800597599E+00
 O   7.517920450823E+00 -4.346309372012E+00 -3.905800597599E+00
 O  -1.878006931254E+00 -1.084054720479E+00 -3.905800597599E+00
 O  -3.758960225417E+00  2.173154686001E+00 -3.905800597599E+00
 O   2.946362899733E-03 -4.341264126963E+00 -3.905800597599E+00
 O   7.994946244124E+00  2.081478385698E+00  5.972736342878E+00
 H   1.430004275615E+01 -8.369265586692E+00  5.686967317411E+00
 O   2.502839673975E+00  1.175546545573E+00  6.737859161618E+00
 H   1.885015405944E+00  1.795956574797E+00  7.200423450937E+00
 H   2.243831503390E+00  1.266753481816E+00  5.759544292707E+00
 O   6.362991305114E+00 -6.714849714290E+00  7.662326861364E+00
 H   7.283646970116E+00  1.681636912673E+00  6.507394597165E+00
 H  -1.328488402183E-01  2.874138067803E+00  7.235187072338E+00
 O  -6.009758306836E+00  1.816896139670E+00  6.723862908273E+00
 H  -5.864898073150E+00  1.542466743952E+00  5.767613828090E+00
 H  -6.945971559466E+00  1.565644413570E+00  6.905699201250E+00
 H  -3.941509574309E+00 -3.790495676606E+00  6.434591573080E+00
 O   7.166807055178E+00 -4.696796773878E+00  6.021413751435E+00
 H   6.753514136634E+00 -5.960267497713E+00  7.139884036410E+00
 O  -4.507806971388E-01 -2.518608529616E+00  6.737435403956E+00
 H  -3.981353424176E-01 -2.383828552910E+00  5.739931787038E+00
 H  -4.487207464440E-01 -3.509424307683E+00  6.818417293484E+00
 O   3.880949812323E+00 -2.314502581323E+00  4.438043837412E+00
 H   3.479891011647E+00 -2.180348870666E+00  5.323704983571E+00
 O   2.008558946565E+00 -1.371885220985E+00  6.126472239956E+00
 H   2.136155849050E+00 -4.805257847371E-01  6.552071265070E+00
 H   1.198633620306E+00 -1.794200746422E+00  6.508100986614E+00
 H  -5.001903699793E+00 -4.777705068492E+00  5.603859278289E+00
 H  -7.022047770596E+00  4.491543320677E+00  5.729983089474E+00
 O  -7.117877917384E-01 -5.187070708202E+00  6.455137690090E+00
 H  -6.073684897416E+00  3.656777245771E+00  6.645273707789E+00
 O   2.301247787980E+00  7.530146115876E+00  6.778917848981E+00
 H   3.278161033019E+00  7.453978762707E+00  6.896377223337E+00
 H   2.180275425238E+00  7.671004655332E+00  5.795010377821E+00
  109
Ceria bulk                               E -1.7584124146652E+04 DE-8.1E-08( 17)
 O  -1.771426371703E+00  1.019740522363E+00  4.182555284084E+00
 O  -3.751246293498E+00  4.372688574238E+00  4.035457464009E+00
 O  -1.375281066572E-01 -2.240391460387E+00  4.137306049526E+00
 O   1.875808089969E+00  1.243272508891E+00  4.203008029614E+00
 O  -1.051612066361E-01  4.304508047263E+00  4.157862494957E+00
 O  -5.660748845116E+00  1.194112709057E+00  4.175503009241E+00
 O  -7.513051387566E+00  4.344628333390E+00  4.052369777218E+00
 O  -3.651398646718E+00 -2.173783442174E+00  4.137519250907E+00
 CE  1.842691927970E+00 -1.061814660365E+00  3.371123560468E+00
 CE -4.816183181330E-03  2.162681543272E+00  3.260214208579E+00
 CE  3.754689960714E+00 -4.417294460961E+00  3.220680013470E+00
 CE  5.682165773884E+00 -1.057772685972E+00  3.284461603990E+00
 CE  3.751563184959E+00  2.181399243084E+00  3.217346773938E+00
 CE  7.535582845669E+00 -4.343282166459E+00  3.278789990219E+00
 CE -1.866269818389E+00 -1.079343382660E+00  3.215704777420E+00
 CE -3.766131850784E+00  2.195019228434E+00  3.333610983555E+00
 CE  1.462899460235E-02 -4.344964197211E+00  3.231323850047E+00
 O  -4.051114999351E-04  2.383646715835E-02  2.430935220132E+00
 O  -1.891618720486E+00  3.201164946040E+00  2.442652694960E+00
 O   1.926536031239E+00 -3.246054454506E+00  2.465522485565E+00
 O   3.740347905320E+00  1.615228036906E-02  2.477093892104E+00
 O   1.849720094828E+00  3.289959572303E+00  2.429685773691E+00
 O   5.624024888794E+00 -3.305124363846E+00  2.465580617680E+00
 O  -3.709602800924E+00  8.084689173369E-02  2.461031940775E+00
 O  -5.624510327185E+00  3.256322686036E+00  2.426090085803E+00
 O  -1.891018457142E+00 -3.282293967211E+00  2.393096964335E+00
 O   1.876796727340E+00 -1.087590084040E+00  8.424591361812E-01
 O   1.695467204364E-03  2.182362186338E+00  8.675014828052E-01
 O   3.759152501379E+00 -4.375084830717E+00  8.761994645202E-01
 O   5.652298290680E+00 -1.089142419709E+00  8.778382951838E-01
 O   3.747714373250E+00  2.180724252455E+00  8.819848742829E-01
 O   7.510481660042E+00 -4.341371867316E+00  8.635672479873E-01
 O  -1.879483661581E+00 -1.090971256803E+00  8.679516980960E-01
 O  -3.766817324818E+00  2.194521759818E+00  8.536954157873E-01
 O   2.164540766317E-02 -4.336006924313E+00  8.818973590188E-01
 CE  1.326460574135E-02 -5.350616119308E-04  6.133031158587E-02
 CE -1.886321732278E+00  3.244809161084E+00  4.637473374194E-02
 CE  1.886948691875E+00 -3.243622502920E+00  7.091108630492E-02
 CE  3.753223120204E+00 -8.830252713619E-03  8.824985771110E-02
 CE  1.868438399977E+00  3.262254415694E+00  5.179507281720E-02
 CE  5.643237832032E+00 -3.256111684816E+00  7.117782184878E-02
 CE -3.761074502765E+00  1.373476521513E-02  6.668177151867E-02
 CE -5.628533954896E+00  3.260455870177E+00  5.312830574813E-02
 CE -1.878874813716E+00 -3.253719228523E+00  4.867878228683E-02
 O  -1.877282353715E+00  1.090764435390E+00 -7.841964816756E-01
 O  -3.760314453221E+00  4.349062789024E+00 -7.903733780444E-01
 O  -2.176870865721E-03 -2.178645926163E+00 -7.853432063816E-01
 O   1.884290603156E+00  1.097169552469E+00 -7.806376734103E-01
 O  -4.210476402716E-03  4.340958517962E+00 -7.879474006266E-01
 O   3.767563375277E+00 -2.179887880175E+00 -7.699191405820E-01
 O  -5.645457521600E+00  1.096215070560E+00 -7.759896627232E-01
 O  -7.513729122914E+00  4.348717425057E+00 -7.809485845735E-01
 O  -3.753104645324E+00 -2.169511814598E+00 -7.845677074629E-01
 O   0.000000000000E+00  0.000000000000E+00 -2.343480358560E+00
 O  -1.880955542571E+00  3.257207887459E+00 -2.343480358560E+00
 O   1.880955542577E+00 -3.257207887454E+00 -2.343480358560E+00
 O   3.757490399811E+00 -2.523277183706E-03 -2.343480358560E+00
 O   1.876534857235E+00  3.254684610278E+00 -2.343480358560E+00
 O   5.638445942393E+00 -3.259731164638E+00 -2.343480358560E+00
 O  -3.757490399811E+00  2.523277173709E-03 -2.343480358560E+00
 O  -5.638445942393E+00  3.259731164638E+00 -2.343480358560E+00
 O  -1.876534857241E+00 -3.254684610273E+00 -2.343480358560E+00
 CE -1.879481980795E+00  1.086577054877E+00 -3.124640478080E+00
 CE -3.760437523360E+00  4.343784942343E+00 -3.124640478080E+00
 CE  1.473561780951E-03 -2.170630832576E+00 -3.124640478080E+00
 CE  1.878008419015E+00  1.084053777698E+00 -3.124640478080E+00
 CE -2.947123555901E-03  4.341261665160E+00 -3.124640478080E+00
 CE  3.758963961592E+00 -2.173154109760E+00 -3.124640478080E+00
 CE -5.636972380648E+00  1.089100332049E+00 -3.124640478080E+00
 CE -7.517927923178E+00  4.346308219530E+00 -3.124640478080E+00
 CE -3.756016838035E+00 -2.168107555399E+00 -3.124640478080E+00
 O   1.879481980795E+00 -1.086577054877E+00 -3.905800597599E+00
 O  -1.473561780951E-03  2.170630832576E+00 -3.905800597599E+00
 O   3.760437523360E+00 -4.343784942343E+00 -3.905800597599E+00
 O   5.636972380648E+00 -1.089100332049E+00 -3.905800597599E+00
 O   3.756016838038E+00  2.168107555399E+00 -3.905800597599E+00
 O   7.517927923178E+00 -4.346308219530E+00 -3.905800597599E+00
 O  -1.878008419015E+00 -1.084053777698E+00 -3.905800597599E+00
 O  -3.758963961594E+00  2.173154109760E+00 -3.905800597599E+00
 O   2.947123554901E-03 -4.341261665160E+00 -3.905800597599E+00
 O   7.994955029965E+00  2.081495762732E+00  5.972744933197E+00
 H   1.430005721368E+01 -8.369235838690E+00  5.686919281120E+00
 O   2.502850541944E+00  1.175549349362E+00  6.737866588826E+00
 H   1.885067512049E+00  1.795997521940E+00  7.200444830775E+00
 H   2.243796702455E+00  1.266775407007E+00  5.759563416161E+00
 O   6.363060474437E+00 -6.714819721006E+00  7.662426347321E+00
 H   7.283649526668E+00  1.681644832916E+00  6.507378035201E+00
 H  -1.328085851867E-01  2.874123857476E+00  7.235334620391E+00
 O  -6.009758398579E+00  1.816913082639E+00  6.723849436321E+00
 H  -5.864882283331E+00  1.542486491408E+00  5.767601932345E+00
 H  -6.945983114036E+00  1.565690157504E+00  6.905688089617E+00
 H  -3.941524769418E+00 -3.790546577124E+00  6.434623613110E+00
 O   7.166798073921E+00 -4.696932304778E+00  6.021517074362E+00
 H   6.753542176883E+00 -5.960218378207E+00  7.139852708476E+00
 O  -4.508002426078E-01 -2.518583457712E+00  6.737446964249E+00
 H  -3.981579390886E-01 -2.383778401449E+00  5.739941813166E+00
 H  -4.487282791545E-01 -3.509392639896E+00  6.818405663448E+00
 O   3.880959083197E+00 -2.314499875441E+00  4.438036441014E+00
 H   3.479903272282E+00 -2.180372148485E+00  5.323708363183E+00
 O   2.008542751297E+00 -1.371874805515E+00  6.126475830839E+00
 H   2.136171644729E+00 -4.805245188807E-01  6.552064331757E+00
 H   1.198632306524E+00 -1.794184389802E+00  6.508127883005E+00
 H  -5.001903989492E+00 -4.777824675006E+00  5.603854248004E+00
 H  -7.022055259363E+00  4.491565597342E+00  5.729970068764E+00
 O  -7.116548133938E-01 -5.187028876650E+00  6.454960083490E+00
 H  -6.073612461280E+00  3.656813017580E+00  6.645189197542E+00
 O   2.301207159438E+00  7.530070128215E+00  6.778929829747E+00
 H   3.278123621780E+00  7.453936566777E+00  6.896397678644E+00
 H   2.180208049916E+00  7.670955924713E+00  5.795021227814E+00
  109
Ceria bulk                               E -1.7584124149475E+04 DE-1.7E-08(  6)
 O  -1.771426371703E+00  1.019740522363E+00  4.182555284084E+00
 O  -3.751246293498E+00  4.372688574238E+00  4.035457464009E+00
 O  -1.375281066572E-01 -2.240391460387E+00  4.137306049526E+00
 O   1.875808089969E+00  1.243272508891E+00  4.203008029614E+00
 O  -1.051612066361E-01  4.304508047263E+00  4.157862494957E+00
 O  -5.660748845116E+00  1.194112709057E+00  4.175503009241E+00
 O  -7.513051387566E+00  4.344628333390E+00  4.052369777218E+00
 O  -3.651398646718E+00 -2.173783442174E+00  4.137519250907E+00
 CE  1.842691927970E+00 -1.061814660365E+00  3.371123560468E+00
 CE -4.816183181330E-03  2.162681543272E+00  3.260214208579E+00
 CE  3.754689960714E+00 -4.417294460961E+00  3.220680013470E+00
 CE  5.682165773884E+00 -1.057772685972E+00  3.284461603990E+00
 CE  3.751563184959E+00  2.181399243084E+00  3.217346773938E+00
 CE  7.535582845669E+00 -4.343282166459E+00  3.278789990219E+00
 CE -1.866269818389E+00 -1.079343382660E+00  3.215704777420E+00
 CE -3.766131850784E+00  2.195019228434E+00  3.333610983555E+00
 CE  1.462899460235E-02 -4.344964197211E+00  3.231323850047E+00
 O  -4.051114999351E-04  2.383646715835E-02  2.430935220132E+00
 O  -1.891618720486E+00  3.201164946040E+00  2.442652694960E+00
 O   1.926536031239E+00 -3.246054454506E+00  2.465522485565E+00
 O   3.740347905320E+00  1.615228036906E-02  2.477093892104E+00
 O   1.849720094828E+00  3.289959572303E+00  2.429685773691E+00
 O   5.624024888794E+00 -3.305124363846E+00  2.465580617680E+00
 O  -3.709602800924E+00  8.084689173369E-02  2.461031940775E+00
 O  -5.624510327185E+00  3.256322686036E+00  2.426090085803E+00
 O  -1.891018457142E+00 -3.282293967211E+00  2.393096964335E+00
 O   1.876796727340E+00 -1.087590084040E+00  8.424591361812E-01
 O   1.695467204364E-03  2.182362186338E+00  8.675014828052E-01
 O   3.759152501379E+00 -4.375084830717E+00  8.761994645202E-01
 O   5.652298290680E+00 -1.089142419709E+00  8.778382951838E-01
 O   3.747714373250E+00  2.180724252455E+00  8.819848742829E-01
 O   7.510481660042E+00 -4.341371867316E+00  8.635672479873E-01
 O  -1.879483661581E+00 -1.090971256803E+00  8.679516980960E-01
 O  -3.766817324818E+00  2.194521759818E+00  8.536954157873E-01
 O   2.164540766317E-02 -4.336006924313E+00  8.818973590188E-01
 CE  1.326460574135E-02 -5.350616119308E-04  6.133031158587E-02
 CE -1.886321732278E+00  3.244809161084E+00  4.637473374194E-02
 CE  1.886948691875E+00 -3.243622502920E+00  7.091108630492E-02
 CE  3.753223120204E+00 -8.830252713619E-03  8.824985771110E-02
 CE  1.868438399977E+00  3.262254415694E+00  5.179507281720E-02
 CE  5.643237832032E+00 -3.256111684816E+00  7.117782184878E-02
 CE -3.761074502765E+00  1.373476521513E-02  6.668177151867E-02
 CE -5.628533954896E+00  3.260455870177E+00  5.312830574813E-02
 CE -1.878874813716E+00 -3.253719228523E+00  4.867878228683E-02
 O  -1.877282353715E+00  1.090764435390E+00 -7.841964816756E-01
 O  -3.760314453221E+00  4.349062789024E+00 -7.903733780444E-01
 O  -2.176870865721E-03 -2.178645926163E+00 -7.853432063816E-01
 O   1.884290603156E+00  1.097169552469E+00 -7.806376734103E-01
 O  -4.210476402716E-03  4.340958517962E+00 -7.879474006266E-01
 O   3.767563375277E+00 -2.179887880175E+00 -7.699191405820E-01
 O  -5.645457521600E+00  1.096215070560E+00 -7.759896627232E-01
 O  -7.513729122914E+00  4.348717425057E+00 -7.809485845735E-01
 O  -3.753104645324E+00 -2.169511814598E+00 -7.845677074629E-01
 O   0.000000000000E+00  0.000000000000E+00 -2.343480358560E+00
 O  -1.880955542571E+00  3.257207887459E+00 -2.343480358560E+00
 O   1.880955542577E+00 -3.257207887454E+00 -2.343480358560E+00
 O   3.757490399811E+00 -2.523277183706E-03 -2.343480358560E+00
 O   1.876534857235E+00  3.254684610278E+00 -2.343480358560E+00
 O   5.638445942393E+00 -3.259731164638E+00 -2.343480358560E+00
 O  -3.757490399811E+00  2.523277173709E-03 -2.343480358560E+00
 O  -5.638445942393E+00  3.259731164638E+00 -2.343480358560E+00
 O  -1.876534857241E+00 -3.254684610273E+00 -2.343480358560E+00
 CE -1.879481980795E+00  1.086577054877E+00 -3.124640478080E+00
 CE -3.760437523360E+00  4.343784942343E+00 -3.124640478080E+00
 CE  1.473561780951E-03 -2.170630832576E+00 -3.124640478080E+00
 CE  1.878008419015E+00  1.084053777698E+00 -3.124640478080E+00
 CE -2.947123555901E-03  4.341261665160E+00 -3.124640478080E+00
 CE  3.758963961592E+00 -2.173154109760E+00 -3.124640478080E+00
 CE -5.636972380648E+00  1.089100332049E+00 -3.124640478080E+00
 CE -7.517927923178E+00  4.346308219530E+00 -3.124640478080E+00
 CE -3.756016838035E+00 -2.168107555399E+00 -3.124640478080E+00
 O   1.879481980795E+00 -1.086577054877E+00 -3.905800597599E+00
 O  -1.473561780951E-03  2.170630832576E+00 -3.905800597599E+00
 O   3.760437523360E+00 -4.343784942343E+00 -3.905800597599E+00
 O   5.636972380648E+00 -1.089100332049E+00 -3.905800597599E+00
 O   3.756016838038E+00  2.168107555399E+00 -3.905800597599E+00
 O   7.517927923178E+00 -4.346308219530E+00 -3.905800597599E+00
 O  -1.878008419015E+00 -1.084053777698E+00 -3.905800597599E+00
 O  -3.758963961594E+00  2.173154109760E+00 -3.905800597599E+00
 O   2.947123554901E-03 -4.341261665160E+00 -3.905800597599E+00
 O   7.994955029965E+00  2.081495762732E+00  5.972744933197E+00
 H   1.430005721368E+01 -8.369235838690E+00  5.686919281120E+00
 O   2.502850541944E+00  1.175549349362E+00  6.737866588826E+00
 H   1.885067512049E+00  1.795997521940E+00  7.200444830775E+00
 H   2.243796702455E+00  1.266775407007E+00  5.759563416161E+00
 O   6.363060474437E+00 -6.714819721006E+00  7.662426347321E+00
 H   7.283649526668E+00  1.681644832916E+00  6.507378035201E+00
 H  -1.328085851867E-01  2.874123857476E+00  7.235334620391E+00
 O  -6.009758398579E+00  1.816913082639E+00  6.723849436321E+00
 H  -5.864882283331E+00  1.542486491408E+00  5.767601932345E+00
 H  -6.945983114036E+00  1.565690157504E+00  6.905688089617E+00
 H  -3.941524769418E+00 -3.790546577124E+00  6.434623613110E+00
 O   7.166798073921E+00 -4.696932304778E+00  6.021517074362E+00
 H   6.753542176883E+00 -5.960218378207E+00  7.139852708476E+00
 O  -4.508002426078E-01 -2.518583457712E+00  6.737446964249E+00
 H  -3.981579390886E-01 -2.383778401449E+00  5.739941813166E+00
 H  -4.487282791545E-01 -3.509392639896E+00  6.818405663448E+00
 O   3.880959083197E+00 -2.314499875441E+00  4.438036441014E+00
 H   3.479903272282E+00 -2.180372148485E+00  5.323708363183E+00
 O   2.008542751297E+00 -1.371874805515E+00  6.126475830839E+00
 H   2.136171644729E+00 -4.805245188807E-01  6.552064331757E+00
 H   1.198632306524E+00 -1.794184389802E+00  6.508127883005E+00
 H  -5.001903989492E+00 -4.777824675006E+00  5.603854248004E+00
 H  -7.022055259363E+00  4.491565597342E+00  5.729970068764E+00
 O  -7.116548133938E-01 -5.187028876650E+00  6.454960083490E+00
 H  -6.073612461280E+00  3.656813017580E+00  6.645189197542E+00
 O   2.301207159438E+00  7.530070128215E+00  6.778929829747E+00
 H   3.278123621780E+00  7.453936566777E+00  6.896397678644E+00
 H   2.180208049916E+00  7.670955924713E+00  5.795021227814E+00
