  108
Ceria bulk                              
 O  -1.799452597751E+00  1.064003990748E+00  4.067226626121E+00
 O  -3.711804034138E+00  4.305340798093E+00  4.108899417446E+00
 O  -9.898186165000E-02 -2.211162006361E+00  4.154382790344E+00
 O   1.878842279364E+00  1.196372509880E+00  4.192658894270E+00
 O  -3.617906006800E-02  4.235844791074E+00  4.070907330167E+00
 O  -7.490571327717E+00  4.359277412653E+00  4.175310130896E+00
 O  -3.623324837641E+00 -2.112117288726E+00  4.125411647562E+00
 CE  1.805776375738E+00 -1.038786470539E+00  3.372041569016E+00
 CE  2.748692077000E-03  2.158055867989E+00  3.234579098627E+00
 CE  3.776173826159E+00 -4.426371916010E+00  3.263726442597E+00
 CE  5.683579631257E+00 -1.074988598017E+00  3.307292551040E+00
 CE  3.756417052381E+00  2.164595052866E+00  3.256924243500E+00
 CE  7.500304575321E+00 -4.336792912768E+00  3.340044593312E+00
 CE -1.860239982282E+00 -1.065103203698E+00  3.216919367667E+00
 CE -3.720889407768E+00  2.155284635257E+00  3.361048549454E+00
 CE  2.578267178500E-02 -4.330736980288E+00  3.256075784031E+00
 O   5.436747315700E-02 -1.608016734500E-02  2.462470233662E+00
 O  -1.888950667684E+00  3.220095916679E+00  2.432503541414E+00
 O   1.998672412780E+00 -3.180485838360E+00  2.599168619594E+00
 O   3.746487262383E+00 -7.443082109200E-02  2.578087158210E+00
 O   1.911950514579E+00  3.281150915505E+00  2.433416911950E+00
 O   5.625036151296E+00 -3.246703971381E+00  2.501849204938E+00
 O  -3.738863188346E+00  3.532213313200E-02  2.469139758261E+00
 O  -5.621991705556E+00  3.258024400185E+00  2.470544502347E+00
 O  -1.871358877830E+00 -3.288298589239E+00  2.419110349163E+00
 O   1.879144018508E+00 -1.091523429215E+00  8.748063180660E-01
 O   1.708720669800E-02  2.162267023441E+00  8.831347325930E-01
 O   3.755348308402E+00 -4.341276808544E+00  8.933720990350E-01
 O   5.630090326102E+00 -1.086798809743E+00  9.031374556720E-01
 O   3.757904498933E+00  2.123942980938E+00  9.134266291060E-01
 O   7.480069651090E+00 -4.320944073635E+00  8.711249621310E-01
 O  -1.859383982474E+00 -1.081197497827E+00  8.858954045740E-01
 O  -3.755475029359E+00  2.172852249408E+00  8.777852578060E-01
 O   6.973501831500E-02 -4.299266474685E+00  9.272343067360E-01
 CE  2.333402605800E-02 -6.959076578000E-03  5.976284390500E-02
 CE -1.876813531914E+00  3.236297786610E+00  5.439874183900E-02
 CE  1.896280650731E+00 -3.227948312946E+00  8.465108179900E-02
 CE  3.748395771978E+00 -2.010464232300E-02  1.004396361160E-01
 CE  1.877299229008E+00  3.248363425964E+00  7.313700522000E-02
 CE  5.633167999929E+00 -3.247148646040E+00  8.521799284000E-02
 CE -3.748951197572E+00  1.160252277400E-02  7.128167259700E-02
 CE -5.597594790388E+00  3.239445440143E+00  7.749467733400E-02
 CE -1.867604609906E+00 -3.244101455702E+00  7.517311390600E-02
 O  -1.864942849902E+00  1.083160173698E+00 -7.713126566380E-01
 O  -3.742608119054E+00  4.332217585135E+00 -7.751727239130E-01
 O   9.093338975000E-03 -2.168590621384E+00 -7.755923297270E-01
 O   1.885205168573E+00  1.081109023519E+00 -7.705915799890E-01
 O   5.986096529999E-04  4.321336441684E+00 -7.758141839610E-01
 O   3.757686333852E+00 -2.169597131069E+00 -7.646648013890E-01
 O  -5.619426199653E+00  1.084413199869E+00 -7.680778473070E-01
 O  -7.469358468182E+00  4.327075528689E+00 -7.478880589000E-01
 O  -3.735620503615E+00 -2.156728440394E+00 -7.711672551590E-01
 O   0.000000000000E+00  0.000000000000E+00 -2.343480358560E+00
 O  -1.874408529006E+00  3.244703275332E+00 -2.343480358560E+00
 O   1.874408529012E+00 -3.244703275327E+00 -2.343480358560E+00
 O   3.744808137050E+00 -2.293348658000E-03 -2.343480358560E+00
 O   1.870399608038E+00  3.242409926678E+00 -2.343480358560E+00
 O   5.619216666067E+00 -3.246996623985E+00 -2.343480358560E+00
 O  -3.744808137050E+00  2.293348648000E-03 -2.343480358560E+00
 O  -5.619216666067E+00  3.246996623985E+00 -2.343480358560E+00
 O  -1.870399608044E+00 -3.242409926673E+00 -2.343480358560E+00
 CE -1.873072222019E+00  1.082332207992E+00 -3.124640478080E+00
 CE -3.747480751020E+00  4.327035483331E+00 -3.124640478080E+00
 CE  1.336306991000E-03 -2.162371067334E+00 -3.124640478080E+00
 CE  1.871735915029E+00  1.080038859340E+00 -3.124640478080E+00
 CE -2.672613977000E-03  4.324742134675E+00 -3.124640478080E+00
 CE  3.746144444042E+00 -2.164664415991E+00 -3.124640478080E+00
 CE -5.617880359111E+00  1.084625556638E+00 -3.124640478080E+00
 CE -7.492288888076E+00  4.329328831993E+00 -3.124640478080E+00
 CE -3.743471830063E+00 -2.160077718683E+00 -3.124640478080E+00
 O   1.873072222019E+00 -1.082332207992E+00 -3.905800597599E+00
 O  -1.336306991000E-03  2.162371067334E+00 -3.905800597599E+00
 O   3.747480751020E+00 -4.327035483331E+00 -3.905800597599E+00
 O   5.617880359111E+00 -1.084625556638E+00 -3.905800597599E+00
 O   3.743471830066E+00  2.160077718683E+00 -3.905800597599E+00
 O   7.492288888076E+00 -4.329328831993E+00 -3.905800597599E+00
 O  -1.871735915029E+00 -1.080038859340E+00 -3.905800597599E+00
 O  -3.746144444044E+00  2.164664415991E+00 -3.905800597599E+00
 O   2.672613976000E-03 -4.324742134675E+00 -3.905800597599E+00
 O   7.929090118183E+00  1.653713425128E+00  6.426491095298E+00
 H   1.380010159762E+01 -9.028659074049E+00  6.382006616872E+00
 O   2.337861142389E+00  1.306138439832E+00  6.772974105593E+00
 H   1.702729438445E+00  1.960080290342E+00  7.149042371780E+00
 H   2.134053517542E+00  1.326468702144E+00  5.781070392070E+00
 O   5.981279687665E+00 -6.457974951945E+00  7.387471237305E+00
 H   7.067570271229E+00  1.673196400310E+00  6.884911271719E+00
 H  -5.011299033770E-01  2.986401492481E+00  7.035119375561E+00
 O  -6.137746539511E+00  1.873117545148E+00  6.799455859773E+00
 H  -5.923025905955E+00  1.557842562624E+00  5.876967922749E+00
 H  -7.084946874962E+00  1.646978034572E+00  6.947423018817E+00
 H  -4.267470090195E+00 -3.169744544662E+00  6.645378373200E+00
 O   6.494312377910E+00 -3.884095756203E+00  6.158524339451E+00
 H   6.169150292563E+00 -5.605923676082E+00  6.929707623181E+00
 O  -2.996660660830E-01 -2.466098528449E+00  6.775096593528E+00
 H  -2.713536012040E-01 -2.357613208550E+00  5.771266805184E+00
 H  -4.376747786570E-01 -3.443735053189E+00  6.895451446922E+00
 O   4.191743775960E+00 -2.624346601466E+00  4.667814736410E+00
 H   3.572664857650E+00 -2.358829535428E+00  5.367619593333E+00
 O   2.094705513526E+00 -1.281609916607E+00  6.158280673333E+00
 H   2.020863350952E+00 -3.331075865110E-01  6.485626176284E+00
 H   1.320924596641E+00 -1.768184610624E+00  6.552197467247E+00
 H  -5.534635375997E+00 -3.455582102602E+00  5.744589513144E+00
 H  -7.049835544635E+00  4.559818444665E+00  5.860504250286E+00
 O  -9.654285512780E-01 -5.089695226891E+00  6.736052626632E+00
 H  -6.209435727214E+00  3.743312154799E+00  6.859455130740E+00
 O   2.631940719885E+00  8.303358083614E+00  6.697576240993E+00
 H   3.574756699785E+00  8.032454769634E+00  6.818707875408E+00
 H   2.386170856034E+00  8.019081520406E+00  5.778028296530E+00
