  109
Ceria bulk                              
 O  -1.828724621030E+00  1.088725870760E+00  4.110903582032E+00
 O  -3.767551224645E+00  4.353318576935E+00  4.141915361409E+00
 O  -1.276466640630E-01 -2.274221393992E+00  4.203503691269E+00
 O   1.901408240788E+00  1.270183158205E+00  4.240819901006E+00
 O  -3.798272710500E-02  4.281850808147E+00  4.098635511388E+00
 O  -5.684740041120E+00  1.224684799437E+00  4.257862179339E+00
 O  -7.586154312332E+00  4.418036402258E+00  4.205571438627E+00
 O  -3.624303808017E+00 -2.172175243240E+00  4.182022786790E+00
 CE  1.842523743449E+00 -1.046782790512E+00  3.441421549273E+00
 CE  1.244692607000E-03  2.185639578250E+00  3.277881792565E+00
 CE  3.823270111804E+00 -4.483986380521E+00  3.307269928268E+00
 CE  5.753777941082E+00 -1.080686327631E+00  3.359479584882E+00
 CE  3.803926028214E+00  2.201385797804E+00  3.292913702893E+00
 CE  7.589952472501E+00 -4.393516537511E+00  3.383489134812E+00
 CE -1.882248701805E+00 -1.085171079224E+00  3.264764849598E+00
 CE -3.767753918486E+00  2.188916515880E+00  3.396485996726E+00
 CE  2.535387654300E-02 -4.387876357445E+00  3.297377280815E+00
 O   2.394905704800E-02 -1.034798800000E-04  2.490405479925E+00
 O  -1.913514916344E+00  3.260187909239E+00  2.461593806667E+00
 O   2.021792220639E+00 -3.266064430038E+00  2.622938814751E+00
 O   3.787737778254E+00 -2.552956265400E-02  2.600888573351E+00
 O   1.938406981575E+00  3.328934506093E+00  2.462229254181E+00
 O   5.697769127055E+00 -3.330347049158E+00  2.523375551349E+00
 O  -3.759226035393E+00  5.354303987400E-02  2.497196035763E+00
 O  -5.694407995499E+00  3.309639151254E+00  2.492878243493E+00
 O  -1.896333015385E+00 -3.341631491329E+00  2.444510710839E+00
 O   1.903228247871E+00 -1.109205252523E+00  8.767164041210E-01
 O   1.859594295800E-02  2.198167442501E+00  8.987311450170E-01
 O   3.800550550230E+00 -4.401692288868E+00  9.020169168620E-01
 O   5.693579996018E+00 -1.102725068001E+00  8.982662213410E-01
 O   3.803424255636E+00  2.159194884193E+00  9.254600365550E-01
 O   7.575069500299E+00 -4.379799167506E+00  8.822155239710E-01
 O  -1.882898066261E+00 -1.106859301977E+00  9.019822692760E-01
 O  -3.805657617789E+00  2.210649704733E+00  8.903567403710E-01
 O   7.049922207700E-02 -4.355412828709E+00  9.419662892700E-01
 CE  2.266632028500E-02 -8.517874183000E-03  8.034097209700E-02
 CE -1.899809362298E+00  3.279387523653E+00  6.968966003100E-02
 CE  1.921998449520E+00 -3.271595522110E+00  1.016259766620E-01
 CE  3.794587443337E+00 -1.883377854000E-02  1.200483182410E-01
 CE  1.899863064417E+00  3.292733964018E+00  8.964018796200E-02
 CE  5.704520860469E+00 -3.291738849555E+00  1.035779834490E-01
 CE -3.794590588522E+00  1.080244102700E-02  9.145835537600E-02
 CE -5.666656633316E+00  3.283840064674E+00  9.184900659700E-02
 CE -1.891581210316E+00 -3.286922012533E+00  9.193995693000E-02
 O  -1.887982712740E+00  1.103251055326E+00 -7.589511244670E-01
 O  -3.790672222406E+00  4.388859727794E+00 -7.660117678380E-01
 O   6.778601923000E-03 -2.202283438887E+00 -7.638122499140E-01
 O   1.909493087796E+00  1.100913861555E+00 -7.564376077860E-01
 O  -4.674385799956E-05  4.375611117122E+00 -7.660812009910E-01
 O   3.800611949533E+00 -2.200114418610E+00 -7.519118487400E-01
 O  -5.693500299260E+00  1.105940876788E+00 -7.578969741600E-01
 O  -7.561436806814E+00  4.384741846702E+00 -7.382393121780E-01
 O  -3.779229690490E+00 -2.190851433686E+00 -7.610900334300E-01
 O   0.000000000000E+00  0.000000000000E+00 -2.343480358560E+00
 O  -1.897639751743E+00  3.287141286865E+00 -2.343480358560E+00
 O   1.897639751749E+00 -3.287141286860E+00 -2.343480358560E+00
 O   3.790726395738E+00 -2.608987038000E-03 -2.343480358560E+00
 O   1.893086643989E+00  3.284532299830E+00 -2.343480358560E+00
 O   5.688366147493E+00 -3.289750273898E+00 -2.343480358560E+00
 O  -3.790726395738E+00  2.608987028000E-03 -2.343480358560E+00
 O  -5.688366147493E+00  3.289750273898E+00 -2.343480358560E+00
 O  -1.893086643995E+00 -3.284532299825E+00 -2.343480358560E+00
 CE -1.896122049161E+00  1.096583424630E+00 -3.124640478080E+00
 CE -3.793761800899E+00  4.383724711501E+00 -3.124640478080E+00
 CE  1.517702586000E-03 -2.190557862229E+00 -3.124640478080E+00
 CE  1.894604346575E+00  1.093974437597E+00 -3.124640478080E+00
 CE -3.035405168000E-03  4.381115724465E+00 -3.124640478080E+00
 CE  3.792244098326E+00 -2.193166849266E+00 -3.124640478080E+00
 CE -5.686848444942E+00  1.099192411655E+00 -3.124640478080E+00
 CE -7.584488196643E+00  4.386333698543E+00 -3.124640478080E+00
 CE -3.789208693156E+00 -2.187948875198E+00 -3.124640478080E+00
 O   1.896122049161E+00 -1.096583424630E+00 -3.905800597599E+00
 O  -1.517702586000E-03  2.190557862229E+00 -3.905800597599E+00
 O   3.793761800899E+00 -4.383724711501E+00 -3.905800597599E+00
 O   5.686848444942E+00 -1.099192411655E+00 -3.905800597599E+00
 O   3.789208693159E+00  2.187948875198E+00 -3.905800597599E+00
 O   7.584488196643E+00 -4.386333698543E+00 -3.905800597599E+00
 O  -1.894604346575E+00 -1.093974437597E+00 -3.905800597599E+00
 O  -3.792244098328E+00  2.193166849266E+00 -3.905800597599E+00
 O   3.035405167000E-03 -4.381115724465E+00 -3.905800597599E+00
 O   8.036913254542E+00  1.649031530013E+00  6.562812439248E+00
 H   1.397373139319E+01 -9.160381388130E+00  6.573456143454E+00
 O   2.349317371341E+00  1.352090395416E+00  6.838856792904E+00
 H   1.711178134131E+00  1.996654344093E+00  7.225498029385E+00
 H   2.150718912717E+00  1.383720201142E+00  5.845286331491E+00
 O   6.044344007779E+00 -6.543543579724E+00  7.487591748364E+00
 H   7.162006647006E+00  1.694067944517E+00  6.997464357794E+00
 H  -5.217403534660E-01  3.023113810204E+00  7.178573654428E+00
 O  -6.201598795001E+00  1.914869933856E+00  6.874083526840E+00
 H  -5.983327065954E+00  1.618857475717E+00  5.945332206529E+00
 H  -7.149200772966E+00  1.684147017421E+00  7.015681552115E+00
 H  -4.271282043484E+00 -3.284109736764E+00  6.674890055391E+00
 O   6.579417422072E+00 -3.978811055001E+00  6.213907259193E+00
 H   6.220675344901E+00 -5.696108921721E+00  7.015024591442E+00
 O  -2.666212126760E-01 -2.485256955279E+00  6.838360222131E+00
 H  -2.629602450190E-01 -2.404061089397E+00  5.831806480390E+00
 H  -3.993346717500E-01 -3.458625557644E+00  6.987466720489E+00
 O   4.364257072380E+00 -2.643661421388E+00  4.864022681550E+00
 H   3.749677389880E+00 -2.312514427500E+00  5.548145000060E+00
 O   2.135363826768E+00 -1.324178854920E+00  6.159225247846E+00
 H   2.180737471180E+00 -4.272066291160E-01  6.582926252003E+00
 H   1.366315792396E+00 -1.796900180155E+00  6.576924290080E+00
 H  -5.586352169696E+00 -3.503249096374E+00  5.834872853946E+00
 H  -7.128742018943E+00  4.619402608135E+00  5.911313171173E+00
 O  -9.719929312480E-01 -5.145578260544E+00  6.783610613041E+00
 H  -6.321246878617E+00  3.807159083231E+00  6.949941500947E+00
 O   2.688566532548E+00  8.400071726581E+00  6.771754723297E+00
 H   3.608723633980E+00  8.082458584905E+00  6.923610308348E+00
 H   2.444037095116E+00  8.101955527199E+00  5.857442043672E+00
