  111
Ceria bulk                              
 O  -1.908593747121E+00  1.038738648578E+00  4.124290749183E+00
 O  -3.672759216875E+00  4.379117491563E+00  3.995517230281E+00
 O  -8.098767329500E-02 -2.097881980661E+00  4.055358417561E+00
 O   1.944415977554E+00  1.135503170883E+00  4.074836381088E+00
 O  -5.910526159999E-04  4.419303706904E+00  4.070464146123E+00
 O   3.788217088367E+00 -2.225619789725E+00  4.125314586423E+00
 O  -5.610223230017E+00  9.865306174930E-01  3.969003123656E+00
 O  -7.561095844207E+00  4.452811473176E+00  4.084317809584E+00
 O  -3.727253233643E+00 -2.174615517734E+00  4.114656840065E+00
 CE  1.873079810110E+00 -1.071142477767E+00  3.321175199187E+00
 CE  1.924360568000E-03  2.184052056626E+00  3.313177310620E+00
 CE  3.754806144829E+00 -4.350076370992E+00  3.191424896575E+00
 CE  5.622081423844E+00 -1.097481704276E+00  3.215748981481E+00
 CE  3.765357567055E+00  2.159725627411E+00  3.283674017042E+00
 CE  7.532094320802E+00 -4.341315002072E+00  3.202187414792E+00
 CE -1.867272462368E+00 -1.073209476106E+00  3.193002813079E+00
 CE -3.755987533425E+00  2.161645362995E+00  3.278966462321E+00
 CE  6.918545771000E-03 -4.328276993422E+00  3.296039680343E+00
 O   2.578221702800E-02  5.186326520400E-02  2.456150749621E+00
 O  -1.842464517311E+00  3.216218297182E+00  2.443829338672E+00
 O   1.859983218749E+00 -3.209803262005E+00  2.457944754479E+00
 O   3.724368535700E+00 -4.215285867600E-02  2.441988199382E+00
 O   1.868838578135E+00  3.264352879254E+00  2.445180503597E+00
 O   5.647533411200E+00 -3.240975315463E+00  2.384394648188E+00
 O  -3.729212091732E+00 -1.584270296000E-02  2.393242195314E+00
 O  -5.642687435825E+00  3.278016414282E+00  2.501456235256E+00
 O  -1.869878913987E+00 -3.244321889337E+00  2.389222840712E+00
 O   1.864784000206E+00 -1.081399384935E+00  8.658633620590E-01
 O   8.745118714000E-03  2.178858198809E+00  8.628932999890E-01
 O   3.744043094317E+00 -4.354846631040E+00  8.800934979970E-01
 O   5.624918181202E+00 -1.077829917941E+00  8.585394972600E-01
 O   3.762125358905E+00  2.163056729486E+00  8.942172616190E-01
 O   7.516055009549E+00 -4.356278929971E+00  8.562508920250E-01
 O  -1.848213591902E+00 -1.073079194554E+00  8.534978192820E-01
 O  -3.766233957519E+00  2.187566307850E+00  8.868992922470E-01
 O   1.644482252600E-02 -4.353625932723E+00  8.826296168470E-01
 CE  1.352911381600E-02  1.214103707700E-02  5.466353662800E-02
 CE -1.876853935778E+00  3.253858578434E+00  5.224047028000E-02
 CE  1.870685575328E+00 -3.250981156224E+00  5.670847113500E-02
 CE  3.747567659433E+00 -2.278714435000E-03  5.684018115600E-02
 CE  1.875162329954E+00  3.253094754301E+00  5.922735990100E-02
 CE  5.635925812719E+00 -3.259550496901E+00  3.100502974300E-02
 CE -3.752773163537E+00  1.332899727200E-02  4.161780303000E-02
 CE -5.630569724322E+00  3.267074282893E+00  6.333120290900E-02
 CE -1.861548995224E+00 -3.257997241157E+00  3.912488881400E-02
 O  -1.879838189528E+00  1.098504008078E+00 -7.652869611240E-01
 O  -3.757287535616E+00  4.349030253651E+00 -7.641153560790E-01
 O   7.193804028000E-03 -2.176123509666E+00 -7.709490046880E-01
 O   1.885273179227E+00  1.091335336619E+00 -7.673201307560E-01
 O  -7.939085987000E-03  4.350231667026E+00 -7.649964191700E-01
 O   3.754026921484E+00 -2.178134865087E+00 -7.627114797000E-01
 O  -5.630466859592E+00  1.101174345268E+00 -7.661773546510E-01
 O  -7.504735232407E+00  4.349064283727E+00 -7.620585350290E-01
 O  -3.747859472392E+00 -2.162898219614E+00 -7.644709705660E-01
 O   0.000000000000E+00  0.000000000000E+00 -2.343480358560E+00
 O  -1.880521638319E+00  3.260295036046E+00 -2.343480358560E+00
 O   1.880521638325E+00 -3.260295036041E+00 -2.343480358560E+00
 O   3.753760042288E+00 -4.198843911000E-03 -2.343480358560E+00
 O   1.873238403961E+00  3.256096192137E+00 -2.343480358560E+00
 O   5.634281680621E+00 -3.264493879952E+00 -2.343480358560E+00
 O  -3.753760042288E+00  4.198843902000E-03 -2.343480358560E+00
 O  -5.634281680621E+00  3.264493879952E+00 -2.343480358560E+00
 O  -1.873238403966E+00 -3.256096192133E+00 -2.343480358560E+00
 CE -1.878093893537E+00  1.088164626650E+00 -3.124640478080E+00
 CE -3.758615531853E+00  4.348459662701E+00 -3.124640478080E+00
 CE  2.427744785000E-03 -2.172130409393E+00 -3.124640478080E+00
 CE  1.875666148751E+00  1.083965782742E+00 -3.124640478080E+00
 CE -4.855489573000E-03  4.344260818790E+00 -3.124640478080E+00
 CE  3.756187787074E+00 -2.176329253303E+00 -3.124640478080E+00
 CE -5.631853935865E+00  1.092363470545E+00 -3.124640478080E+00
 CE -7.512375574146E+00  4.352658506612E+00 -3.124640478080E+00
 CE -3.751332297504E+00 -2.167931565488E+00 -3.124640478080E+00
 O   1.878093893537E+00 -1.088164626650E+00 -3.905800597599E+00
 O  -2.427744785000E-03  2.172130409393E+00 -3.905800597599E+00
 O   3.758615531853E+00 -4.348459662701E+00 -3.905800597599E+00
 O   5.631853935865E+00 -1.092363470545E+00 -3.905800597599E+00
 O   3.751332297507E+00  2.167931565488E+00 -3.905800597599E+00
 O   7.512375574146E+00 -4.352658506612E+00 -3.905800597599E+00
 O  -1.875666148751E+00 -1.083965782742E+00 -3.905800597599E+00
 O  -3.756187787077E+00  2.176329253303E+00 -3.905800597599E+00
 O   4.855489571000E-03 -4.344260818790E+00 -3.905800597599E+00
 O   1.138495031202E+01  4.811660906722E+00  6.670999696976E+00
 H   1.134401741062E+01  4.717302693078E+00  5.675525109985E+00
 H   1.051345025083E+01  5.201280006734E+00  6.889059915115E+00
 O   3.415324117550E-01  2.111513544881E+00  5.939026365369E+00
 H   2.683655033170E-01  2.965422699867E+00  6.434481239359E+00
 H   1.286551661132E+00  1.905168167909E+00  5.795732428904E+00
 O   1.561935175399E+01  2.555749587058E+00  5.848483146877E+00
 H   1.535643064834E+01  3.498929187817E+00  5.770513826954E+00
 H   1.661412019151E+01  2.545520770777E+00  5.915311376135E+00
 O  -4.185746695793E+00  2.536802564310E+00  5.863619345556E+00
 H  -3.765271705354E+00  3.412348314064E+00  5.929702648766E+00
 H  -3.659118122112E+00  1.830815500242E+00  6.374886885597E+00
 O   8.882256555561E+00  6.268345999196E+00  6.412394588759E+00
 H   8.545093299965E+00  6.862020983423E+00  7.103614662869E+00
 H   9.117702387734E+00  6.886805038197E+00  5.651383698135E+00
 O   1.535194869152E+01 -1.114945393950E-01  6.731518051021E+00
 H   1.826216374283E+01 -1.915752387225E+00  5.553395364775E+00
 O   1.778323739295E+01 -1.579702252990E+00  6.388188843437E+00
 H   1.761827877091E+01 -2.378160183902E+00  6.920940394675E+00
 H   1.544734534180E+01  8.395393320980E-01  6.516884381138E+00
 H   1.620673177723E+01 -5.559934800910E-01  6.536006966053E+00
 H   1.266619331216E+01 -4.009211511977E+00  6.004688584118E+00
 O   1.169211320878E+01 -3.984463671275E+00  5.862579483729E+00
 H   1.149412053483E+01 -3.029554297911E+00  5.739049067456E+00
 O   1.975123568766E+01  5.324543837190E-01  6.717840252007E+00
 H   2.022394837990E+01  5.993163352290E-01  5.848222391885E+00
 H   1.915152524815E+01 -2.462977991530E-01  6.691950399512E+00
 O   7.398067030765E+00  8.744096767885E+00  5.940114032352E+00
 H   6.712041425908E+00  9.371853812360E+00  6.223931576259E+00
 H   8.285282696535E+00  9.125758618724E+00  6.241719303127E+00
  111
Ceria bulk                              
 O  -1.908593747121E+00  1.038738648578E+00  4.124290749183E+00
 O  -3.672759216875E+00  4.379117491563E+00  3.995517230281E+00
 O  -8.098767329481E-02 -2.097881980661E+00  4.055358417561E+00
 O   1.944415977554E+00  1.135503170883E+00  4.074836381088E+00
 O  -5.910526161874E-04  4.419303706904E+00  4.070464146123E+00
 O   3.788217088367E+00 -2.225619789725E+00  4.125314586423E+00
 O  -5.610223230017E+00  9.865306174929E-01  3.969003123656E+00
 O  -7.561095844207E+00  4.452811473176E+00  4.084317809584E+00
 O  -3.727253233643E+00 -2.174615517734E+00  4.114656840065E+00
 CE  1.873079810110E+00 -1.071142477767E+00  3.321175199187E+00
 CE  1.924360568047E-03  2.184052056626E+00  3.313177310620E+00
 CE  3.754806144829E+00 -4.350076370992E+00  3.191424896575E+00
 CE  5.622081423843E+00 -1.097481704276E+00  3.215748981481E+00
 CE  3.765357567055E+00  2.159725627411E+00  3.283674017042E+00
 CE  7.532094320802E+00 -4.341315002072E+00  3.202187414792E+00
 CE -1.867272462368E+00 -1.073209476106E+00  3.193002813079E+00
 CE -3.755987533425E+00  2.161645362995E+00  3.278966462321E+00
 CE  6.918545770925E-03 -4.328276993422E+00  3.296039680343E+00
 O   2.578221702758E-02  5.186326520390E-02  2.456150749621E+00
 O  -1.842464517311E+00  3.216218297182E+00  2.443829338672E+00
 O   1.859983218749E+00 -3.209803262005E+00  2.457944754479E+00
 O   3.724368535700E+00 -4.215285867627E-02  2.441988199382E+00
 O   1.868838578135E+00  3.264352879254E+00  2.445180503597E+00
 O   5.647533411200E+00 -3.240975315463E+00  2.384394648188E+00
 O  -3.729212091732E+00 -1.584270295992E-02  2.393242195314E+00
 O  -5.642687435825E+00  3.278016414282E+00  2.501456235256E+00
 O  -1.869878913987E+00 -3.244321889337E+00  2.389222840712E+00
 O   1.864784000206E+00 -1.081399384935E+00  8.658633620590E-01
 O   8.745118713954E-03  2.178858198809E+00  8.628932999891E-01
 O   3.744043094317E+00 -4.354846631040E+00  8.800934979969E-01
 O   5.624918181202E+00 -1.077829917941E+00  8.585394972599E-01
 O   3.762125358905E+00  2.163056729486E+00  8.942172616189E-01
 O   7.516055009549E+00 -4.356278929971E+00  8.562508920247E-01
 O  -1.848213591902E+00 -1.073079194554E+00  8.534978192823E-01
 O  -3.766233957519E+00  2.187566307850E+00  8.868992922467E-01
 O   1.644482252585E-02 -4.353625932723E+00  8.826296168469E-01
 CE  1.352911381618E-02  1.214103707695E-02  5.466353662816E-02
 CE -1.876853935778E+00  3.253858578434E+00  5.224047027996E-02
 CE  1.870685575328E+00 -3.250981156224E+00  5.670847113533E-02
 CE  3.747567659433E+00 -2.278714434934E-03  5.684018115599E-02
 CE  1.875162329954E+00  3.253094754301E+00  5.922735990091E-02
 CE  5.635925812719E+00 -3.259550496901E+00  3.100502974344E-02
 CE -3.752773163537E+00  1.332899727231E-02  4.161780302989E-02
 CE -5.630569724322E+00  3.267074282894E+00  6.333120290928E-02
 CE -1.861548995224E+00 -3.257997241157E+00  3.912488881390E-02
 O  -1.879838189528E+00  1.098504008078E+00 -7.652869611241E-01
 O  -3.757287535616E+00  4.349030253651E+00 -7.641153560791E-01
 O   7.193804027828E-03 -2.176123509666E+00 -7.709490046883E-01
 O   1.885273179227E+00  1.091335336619E+00 -7.673201307560E-01
 O  -7.939085987044E-03  4.350231667026E+00 -7.649964191699E-01
 O   3.754026921484E+00 -2.178134865087E+00 -7.627114797002E-01
 O  -5.630466859592E+00  1.101174345268E+00 -7.661773546505E-01
 O  -7.504735232407E+00  4.349064283727E+00 -7.620585350290E-01
 O  -3.747859472392E+00 -2.162898219614E+00 -7.644709705656E-01
 O   0.000000000000E+00  0.000000000000E+00 -2.343480358560E+00
 O  -1.880521638319E+00  3.260295036046E+00 -2.343480358560E+00
 O   1.880521638325E+00 -3.260295036041E+00 -2.343480358560E+00
 O   3.753760042288E+00 -4.198843910905E-03 -2.343480358560E+00
 O   1.873238403961E+00  3.256096192137E+00 -2.343480358560E+00
 O   5.634281680620E+00 -3.264493879952E+00 -2.343480358560E+00
 O  -3.753760042288E+00  4.198843901907E-03 -2.343480358560E+00
 O  -5.634281680620E+00  3.264493879952E+00 -2.343480358560E+00
 O  -1.873238403966E+00 -3.256096192133E+00 -2.343480358560E+00
 CE -1.878093893536E+00  1.088164626650E+00 -3.124640478080E+00
 CE -3.758615531853E+00  4.348459662701E+00 -3.124640478080E+00
 CE  2.427744784833E-03 -2.172130409393E+00 -3.124640478080E+00
 CE  1.875666148751E+00  1.083965782742E+00 -3.124640478080E+00
 CE -4.855489572667E-03  4.344260818790E+00 -3.124640478080E+00
 CE  3.756187787074E+00 -2.176329253303E+00 -3.124640478080E+00
 CE -5.631853935865E+00  1.092363470545E+00 -3.124640478080E+00
 CE -7.512375574146E+00  4.352658506612E+00 -3.124640478080E+00
 CE -3.751332297504E+00 -2.167931565488E+00 -3.124640478080E+00
 O   1.878093893536E+00 -1.088164626650E+00 -3.905800597599E+00
 O  -2.427744784833E-03  2.172130409393E+00 -3.905800597599E+00
 O   3.758615531853E+00 -4.348459662701E+00 -3.905800597599E+00
 O   5.631853935865E+00 -1.092363470545E+00 -3.905800597599E+00
 O   3.751332297507E+00  2.167931565488E+00 -3.905800597599E+00
 O   7.512375574146E+00 -4.352658506612E+00 -3.905800597599E+00
 O  -1.875666148751E+00 -1.083965782742E+00 -3.905800597599E+00
 O  -3.756187787077E+00  2.176329253303E+00 -3.905800597599E+00
 O   4.855489570667E-03 -4.344260818790E+00 -3.905800597599E+00
 O   1.138495031202E+01  4.811660906722E+00  6.670999696976E+00
 H   1.134401741062E+01  4.717302693078E+00  5.675525109985E+00
 H   1.051345025083E+01  5.201280006734E+00  6.889059915115E+00
 O   3.415324117549E-01  2.111513544881E+00  5.939026365368E+00
 H   2.683655033167E-01  2.965422699867E+00  6.434481239359E+00
 H   1.286551661132E+00  1.905168167909E+00  5.795732428904E+00
 O   1.561935175399E+01  2.555749587058E+00  5.848483146877E+00
 H   1.535643064834E+01  3.498929187817E+00  5.770513826954E+00
 H   1.661412019151E+01  2.545520770777E+00  5.915311376134E+00
 O  -4.185746695793E+00  2.536802564310E+00  5.863619345556E+00
 H  -3.765271705354E+00  3.412348314064E+00  5.929702648766E+00
 H  -3.659118122112E+00  1.830815500242E+00  6.374886885597E+00
 O   8.882256555562E+00  6.268345999196E+00  6.412394588759E+00
 H   8.545093299965E+00  6.862020983423E+00  7.103614662869E+00
 H   9.117702387733E+00  6.886805038197E+00  5.651383698135E+00
 O   1.535194869152E+01 -1.114945393949E-01  6.731518051021E+00
 H   1.826216374283E+01 -1.915752387225E+00  5.553395364775E+00
 O   1.778323739295E+01 -1.579702252990E+00  6.388188843437E+00
 H   1.761827877091E+01 -2.378160183902E+00  6.920940394675E+00
 H   1.544734534180E+01  8.395393320983E-01  6.516884381138E+00
 H   1.620673177724E+01 -5.559934800906E-01  6.536006966053E+00
 H   1.266619331216E+01 -4.009211511977E+00  6.004688584118E+00
 O   1.169211320878E+01 -3.984463671275E+00  5.862579483729E+00
 H   1.149412053483E+01 -3.029554297911E+00  5.739049067456E+00
 O   1.975123568766E+01  5.324543837190E-01  6.717840252007E+00
 H   2.022394837990E+01  5.993163352293E-01  5.848222391885E+00
 H   1.915152524815E+01 -2.462977991526E-01  6.691950399512E+00
 O   7.398067030765E+00  8.744096767885E+00  5.940114032353E+00
 H   6.712041425907E+00  9.371853812360E+00  6.223931576259E+00
 H   8.285282696535E+00  9.125758618724E+00  6.241719303128E+00
  111
Ceria bulk                               E -1.7659729275611E+04 DE-2.9E-08(  5)
 O  -1.908499784012E+00  1.038779743097E+00  4.124064152222E+00
 O  -3.672701725032E+00  4.379065628472E+00  3.995556173771E+00
 O  -8.077713600030E-02 -2.097854048840E+00  4.055517074779E+00
 O   1.944452543688E+00  1.135612393557E+00  4.074893324713E+00
 O  -5.966878682948E-04  4.419345303822E+00  4.070399221767E+00
 O   3.788431038143E+00 -2.225469821507E+00  4.125355127316E+00
 O  -5.610180129875E+00  9.866683702667E-01  3.968918589926E+00
 O  -7.560984489367E+00  4.452717062011E+00  4.083814861528E+00
 O  -3.726988609150E+00 -2.174777439864E+00  4.114485268900E+00
 CE  1.873229325547E+00 -1.071068148452E+00  3.321288226603E+00
 CE  1.960930780689E-03  2.184068390913E+00  3.313006074612E+00
 CE  3.754804194760E+00 -4.350082719319E+00  3.191458603422E+00
 CE  5.622086085738E+00 -1.097323891680E+00  3.215768744967E+00
 CE  3.765380377179E+00  2.159809942917E+00  3.283634512502E+00
 CE  7.531998763927E+00 -4.341363945818E+00  3.201980834945E+00
 CE -1.867153017666E+00 -1.073236616118E+00  3.193007350698E+00
 CE -3.755946583963E+00  2.161595246270E+00  3.278952131232E+00
 CE  7.006917146355E-03 -4.328268817987E+00  3.295885361855E+00
 O   2.590447172771E-02  5.184564803121E-02  2.456112229847E+00
 O  -1.842362513169E+00  3.216383522030E+00  2.443801240490E+00
 O   1.859955583480E+00 -3.209767305083E+00  2.458129184225E+00
 O   3.724334711532E+00 -4.209351646414E-02  2.441941851767E+00
 O   1.868729559727E+00  3.264282721598E+00  2.445055826496E+00
 O   5.647507172738E+00 -3.240928443957E+00  2.384354629842E+00
 O  -3.729199533988E+00 -1.580589990218E-02  2.393283190976E+00
 O  -5.642440227951E+00  3.277879636954E+00  2.501230581674E+00
 O  -1.869794762472E+00 -3.244163226159E+00  2.389190832028E+00
 O   1.864866845652E+00 -1.081534265237E+00  8.658300655939E-01
 O   8.734739180665E-03  2.178833475724E+00  8.628103955913E-01
 O   3.744012387006E+00 -4.354678338363E+00  8.800968044785E-01
 O   5.624867385293E+00 -1.077837234462E+00  8.585859912441E-01
 O   3.762041999483E+00  2.163133411000E+00  8.941330795209E-01
 O   7.516016207023E+00 -4.356353401353E+00  8.561697612981E-01
 O  -1.848184645759E+00 -1.073053926074E+00  8.535438868224E-01
 O  -3.766055786665E+00  2.187613189717E+00  8.869296203855E-01
 O   1.646237923087E-02 -4.353621076721E+00  8.827757368532E-01
 CE  1.352069234692E-02  1.212378520154E-02  5.475280596669E-02
 CE -1.876835998616E+00  3.253878437330E+00  5.227253724273E-02
 CE  1.870742374549E+00 -3.250951692137E+00  5.669903229237E-02
 CE  3.747557013483E+00 -2.276562500302E-03  5.689471074851E-02
 CE  1.875215762930E+00  3.253046269011E+00  5.917466712127E-02
 CE  5.635851232966E+00 -3.259519094551E+00  3.104761561073E-02
 CE -3.752721217926E+00  1.330329315218E-02  4.162529556797E-02
 CE -5.630458209010E+00  3.267067742428E+00  6.337628563640E-02
 CE -1.861512096665E+00 -3.257995345909E+00  3.911856771804E-02
 O  -1.879814046793E+00  1.098488821459E+00 -7.652697484470E-01
 O  -3.757249504130E+00  4.349054116973E+00 -7.640940314033E-01
 O   7.204433161520E-03 -2.176145178715E+00 -7.709053285007E-01
 O   1.885273383238E+00  1.091239954211E+00 -7.672608353069E-01
 O  -7.982113060000E-03  4.350202776778E+00 -7.650004692604E-01
 O   3.754053157318E+00 -2.178100305567E+00 -7.628504749551E-01
 O  -5.630377462341E+00  1.101189537714E+00 -7.660882333522E-01
 O  -7.504627268375E+00  4.349105672299E+00 -7.621214577540E-01
 O  -3.747795053376E+00 -2.162857953341E+00 -7.643422629361E-01
 O   0.000000000000E+00  0.000000000000E+00 -2.343480358560E+00
 O  -1.880513207504E+00  3.260284870174E+00 -2.343480358560E+00
 O   1.880513207510E+00 -3.260284870169E+00 -2.343480358560E+00
 O   3.753728059035E+00 -4.207571727062E-03 -2.343480358560E+00
 O   1.873214851523E+00  3.256077298449E+00 -2.343480358560E+00
 O   5.634241266551E+00 -3.264492441897E+00 -2.343480358560E+00
 O  -3.753728059035E+00  4.207571718064E-03 -2.343480358560E+00
 O  -5.634241266551E+00  3.264492441897E+00 -2.343480358560E+00
 O  -1.873214851528E+00 -3.256077298445E+00 -2.343480358560E+00
 CE -1.878080422180E+00  1.088164147299E+00 -3.124640478080E+00
 CE -3.758593629681E+00  4.348449017477E+00 -3.124640478080E+00
 CE  2.432785325432E-03 -2.172120722873E+00 -3.124640478080E+00
 CE  1.875647636854E+00  1.083956575574E+00 -3.124640478080E+00
 CE -4.865570653864E-03  4.344241445750E+00 -3.124640478080E+00
 CE  3.756160844361E+00 -2.176328294599E+00 -3.124640478080E+00
 CE -5.631808481255E+00  1.092371719010E+00 -3.124640478080E+00
 CE -7.512321688720E+00  4.352656589204E+00 -3.124640478080E+00
 CE -3.751295273710E+00 -2.167913151152E+00 -3.124640478080E+00
 O   1.878080422180E+00 -1.088164147299E+00 -3.905800597599E+00
 O  -2.432785325432E-03  2.172120722873E+00 -3.905800597599E+00
 O   3.758593629681E+00 -4.348449017477E+00 -3.905800597599E+00
 O   5.631808481255E+00 -1.092371719010E+00 -3.905800597599E+00
 O   3.751295273713E+00  2.167913151152E+00 -3.905800597599E+00
 O   7.512321688720E+00 -4.352656589204E+00 -3.905800597599E+00
 O  -1.875647636854E+00 -1.083956575574E+00 -3.905800597599E+00
 O  -3.756160844364E+00  2.176328294599E+00 -3.905800597599E+00
 O   4.865570651864E-03 -4.344241445750E+00 -3.905800597599E+00
 O   1.138487653066E+01  4.811950126451E+00  6.670951079644E+00
 H   1.134393287606E+01  4.717398647087E+00  5.675459616409E+00
 H   1.051324530630E+01  5.201360906362E+00  6.888970474869E+00
 O   3.413085360579E-01  2.111470182230E+00  5.938927321949E+00
 H   2.681647453936E-01  2.965409658546E+00  6.434370782401E+00
 H   1.286389061460E+00  1.905095386254E+00  5.795652135719E+00
 O   1.561909093925E+01  2.555579322157E+00  5.848434424430E+00
 H   1.535582635221E+01  3.498649150880E+00  5.770257952100E+00
 H   1.661395305139E+01  2.545471053123E+00  5.915203697526E+00
 O  -4.185871311995E+00  2.537028958409E+00  5.863682577243E+00
 H  -3.765562506228E+00  3.412707419023E+00  5.929763231042E+00
 H  -3.658912668070E+00  1.831108060968E+00  6.374804116260E+00
 O   8.881825371080E+00  6.268102854530E+00  6.412084259607E+00
 H   8.544687741329E+00  6.861730373354E+00  7.103381296068E+00
 H   9.117338910771E+00  6.886782392245E+00  5.651202980273E+00
 O   1.535139256196E+01 -1.112844012498E-01  6.731663226883E+00
 H   1.826260979568E+01 -1.915815633469E+00  5.553230658261E+00
 O   1.778371439117E+01 -1.580186343529E+00  6.388384850196E+00
 H   1.761878288749E+01 -2.379015734972E+00  6.920663846105E+00
 H   1.544716910142E+01  8.396000061799E-01  6.516632890417E+00
 H   1.620623456379E+01 -5.559066064749E-01  6.536168919075E+00
 H   1.266567094550E+01 -4.009305019077E+00  6.004906068005E+00
 O   1.169161220076E+01 -3.984342936869E+00  5.862698573565E+00
 H   1.149381415404E+01 -3.029515479973E+00  5.738193580278E+00
 O   1.975121351094E+01  5.325829121127E-01  6.717641053837E+00
 H   2.022392760148E+01  5.994923808827E-01  5.847949667619E+00
 H   1.915127321561E+01 -2.459981805764E-01  6.691583619199E+00
 O   7.398087695773E+00  8.743870918487E+00  5.939890190659E+00
 H   6.711819724322E+00  9.371335562846E+00  6.223857842964E+00
 H   8.285183197291E+00  9.125684225563E+00  6.241852744703E+00
  111
Ceria bulk                               E -1.7659729343147E+04 DE 3.3E-08(  7)
 O  -1.908499784012E+00  1.038779743097E+00  4.124064152222E+00
 O  -3.672701725032E+00  4.379065628472E+00  3.995556173771E+00
 O  -8.077713600030E-02 -2.097854048840E+00  4.055517074779E+00
 O   1.944452543688E+00  1.135612393557E+00  4.074893324713E+00
 O  -5.966878682948E-04  4.419345303822E+00  4.070399221767E+00
 O   3.788431038143E+00 -2.225469821507E+00  4.125355127316E+00
 O  -5.610180129875E+00  9.866683702667E-01  3.968918589926E+00
 O  -7.560984489367E+00  4.452717062011E+00  4.083814861528E+00
 O  -3.726988609150E+00 -2.174777439864E+00  4.114485268900E+00
 CE  1.873229325547E+00 -1.071068148452E+00  3.321288226603E+00
 CE  1.960930780689E-03  2.184068390913E+00  3.313006074612E+00
 CE  3.754804194760E+00 -4.350082719319E+00  3.191458603422E+00
 CE  5.622086085738E+00 -1.097323891680E+00  3.215768744967E+00
 CE  3.765380377179E+00  2.159809942917E+00  3.283634512502E+00
 CE  7.531998763927E+00 -4.341363945818E+00  3.201980834945E+00
 CE -1.867153017666E+00 -1.073236616118E+00  3.193007350698E+00
 CE -3.755946583963E+00  2.161595246270E+00  3.278952131232E+00
 CE  7.006917146355E-03 -4.328268817987E+00  3.295885361855E+00
 O   2.590447172771E-02  5.184564803121E-02  2.456112229847E+00
 O  -1.842362513169E+00  3.216383522030E+00  2.443801240490E+00
 O   1.859955583480E+00 -3.209767305083E+00  2.458129184225E+00
 O   3.724334711532E+00 -4.209351646414E-02  2.441941851767E+00
 O   1.868729559727E+00  3.264282721598E+00  2.445055826496E+00
 O   5.647507172738E+00 -3.240928443957E+00  2.384354629842E+00
 O  -3.729199533988E+00 -1.580589990218E-02  2.393283190976E+00
 O  -5.642440227951E+00  3.277879636954E+00  2.501230581674E+00
 O  -1.869794762472E+00 -3.244163226159E+00  2.389190832028E+00
 O   1.864866845652E+00 -1.081534265237E+00  8.658300655939E-01
 O   8.734739180665E-03  2.178833475724E+00  8.628103955913E-01
 O   3.744012387006E+00 -4.354678338363E+00  8.800968044785E-01
 O   5.624867385293E+00 -1.077837234462E+00  8.585859912441E-01
 O   3.762041999483E+00  2.163133411000E+00  8.941330795209E-01
 O   7.516016207023E+00 -4.356353401353E+00  8.561697612981E-01
 O  -1.848184645759E+00 -1.073053926074E+00  8.535438868224E-01
 O  -3.766055786665E+00  2.187613189717E+00  8.869296203855E-01
 O   1.646237923087E-02 -4.353621076721E+00  8.827757368532E-01
 CE  1.352069234692E-02  1.212378520154E-02  5.475280596669E-02
 CE -1.876835998616E+00  3.253878437330E+00  5.227253724273E-02
 CE  1.870742374549E+00 -3.250951692137E+00  5.669903229237E-02
 CE  3.747557013483E+00 -2.276562500302E-03  5.689471074851E-02
 CE  1.875215762930E+00  3.253046269011E+00  5.917466712127E-02
 CE  5.635851232966E+00 -3.259519094551E+00  3.104761561073E-02
 CE -3.752721217926E+00  1.330329315218E-02  4.162529556797E-02
 CE -5.630458209010E+00  3.267067742428E+00  6.337628563640E-02
 CE -1.861512096665E+00 -3.257995345909E+00  3.911856771804E-02
 O  -1.879814046793E+00  1.098488821459E+00 -7.652697484470E-01
 O  -3.757249504130E+00  4.349054116973E+00 -7.640940314033E-01
 O   7.204433161520E-03 -2.176145178715E+00 -7.709053285007E-01
 O   1.885273383238E+00  1.091239954211E+00 -7.672608353069E-01
 O  -7.982113060000E-03  4.350202776778E+00 -7.650004692604E-01
 O   3.754053157318E+00 -2.178100305567E+00 -7.628504749551E-01
 O  -5.630377462341E+00  1.101189537714E+00 -7.660882333522E-01
 O  -7.504627268375E+00  4.349105672299E+00 -7.621214577540E-01
 O  -3.747795053376E+00 -2.162857953341E+00 -7.643422629361E-01
 O   0.000000000000E+00  0.000000000000E+00 -2.343480358560E+00
 O  -1.880513207504E+00  3.260284870174E+00 -2.343480358560E+00
 O   1.880513207510E+00 -3.260284870169E+00 -2.343480358560E+00
 O   3.753728059035E+00 -4.207571727062E-03 -2.343480358560E+00
 O   1.873214851523E+00  3.256077298449E+00 -2.343480358560E+00
 O   5.634241266551E+00 -3.264492441897E+00 -2.343480358560E+00
 O  -3.753728059035E+00  4.207571718064E-03 -2.343480358560E+00
 O  -5.634241266551E+00  3.264492441897E+00 -2.343480358560E+00
 O  -1.873214851528E+00 -3.256077298445E+00 -2.343480358560E+00
 CE -1.878080422180E+00  1.088164147299E+00 -3.124640478080E+00
 CE -3.758593629681E+00  4.348449017477E+00 -3.124640478080E+00
 CE  2.432785325432E-03 -2.172120722873E+00 -3.124640478080E+00
 CE  1.875647636854E+00  1.083956575574E+00 -3.124640478080E+00
 CE -4.865570653864E-03  4.344241445750E+00 -3.124640478080E+00
 CE  3.756160844361E+00 -2.176328294599E+00 -3.124640478080E+00
 CE -5.631808481255E+00  1.092371719010E+00 -3.124640478080E+00
 CE -7.512321688720E+00  4.352656589204E+00 -3.124640478080E+00
 CE -3.751295273710E+00 -2.167913151152E+00 -3.124640478080E+00
 O   1.878080422180E+00 -1.088164147299E+00 -3.905800597599E+00
 O  -2.432785325432E-03  2.172120722873E+00 -3.905800597599E+00
 O   3.758593629681E+00 -4.348449017477E+00 -3.905800597599E+00
 O   5.631808481255E+00 -1.092371719010E+00 -3.905800597599E+00
 O   3.751295273713E+00  2.167913151152E+00 -3.905800597599E+00
 O   7.512321688720E+00 -4.352656589204E+00 -3.905800597599E+00
 O  -1.875647636854E+00 -1.083956575574E+00 -3.905800597599E+00
 O  -3.756160844364E+00  2.176328294599E+00 -3.905800597599E+00
 O   4.865570651864E-03 -4.344241445750E+00 -3.905800597599E+00
 O   1.138487653066E+01  4.811950126451E+00  6.670951079644E+00
 H   1.134393287606E+01  4.717398647087E+00  5.675459616409E+00
 H   1.051324530630E+01  5.201360906362E+00  6.888970474869E+00
 O   3.413085360579E-01  2.111470182230E+00  5.938927321949E+00
 H   2.681647453936E-01  2.965409658546E+00  6.434370782401E+00
 H   1.286389061460E+00  1.905095386254E+00  5.795652135719E+00
 O   1.561909093925E+01  2.555579322157E+00  5.848434424430E+00
 H   1.535582635221E+01  3.498649150880E+00  5.770257952100E+00
 H   1.661395305139E+01  2.545471053123E+00  5.915203697526E+00
 O  -4.185871311995E+00  2.537028958409E+00  5.863682577243E+00
 H  -3.765562506228E+00  3.412707419023E+00  5.929763231042E+00
 H  -3.658912668070E+00  1.831108060968E+00  6.374804116260E+00
 O   8.881825371080E+00  6.268102854530E+00  6.412084259607E+00
 H   8.544687741329E+00  6.861730373354E+00  7.103381296068E+00
 H   9.117338910771E+00  6.886782392245E+00  5.651202980273E+00
 O   1.535139256196E+01 -1.112844012498E-01  6.731663226883E+00
 H   1.826260979568E+01 -1.915815633469E+00  5.553230658261E+00
 O   1.778371439117E+01 -1.580186343529E+00  6.388384850196E+00
 H   1.761878288749E+01 -2.379015734972E+00  6.920663846105E+00
 H   1.544716910142E+01  8.396000061799E-01  6.516632890417E+00
 H   1.620623456379E+01 -5.559066064749E-01  6.536168919075E+00
 H   1.266567094550E+01 -4.009305019077E+00  6.004906068005E+00
 O   1.169161220076E+01 -3.984342936869E+00  5.862698573565E+00
 H   1.149381415404E+01 -3.029515479973E+00  5.738193580278E+00
 O   1.975121351094E+01  5.325829121127E-01  6.717641053837E+00
 H   2.022392760148E+01  5.994923808827E-01  5.847949667619E+00
 H   1.915127321561E+01 -2.459981805764E-01  6.691583619199E+00
 O   7.398087695773E+00  8.743870918487E+00  5.939890190659E+00
 H   6.711819724322E+00  9.371335562846E+00  6.223857842964E+00
 H   8.285183197291E+00  9.125684225563E+00  6.241852744703E+00
